<?xml version="1.0" encoding="UTF-8"?>

<!-- generated on Fri Jun 20 16:53:59 2014 by SUMO polyconvert Version 0.17.1
<?xml version="1.0" encoding="UTF-8"?>

<configuration xmlns:xsi="http://www.w3.org/2001/XMLSchema-instance" xsi:noNamespaceSchemaLocation="http://sumo.sf.net/xsd/polyconvertConfiguration.xsd">

    <input>
        <net-file value="sanfrancisco.net.xml"/>
        <osm-files value="sanfrancisco.osm"/>
        <type-file value="typemap.xml"/>
    </input>

    <output>
        <output-file value="sanfrancisco.poly.xml"/>
    </output>

</configuration>
-->

<shapes>
    <poly id="129877644" type="building" color="255,230,230" fill="1" layer="2.00" shape="-543336.85,-4176473.71"/>
    <poly id="129877655" type="building" color="255,230,230" fill="1" layer="2.00" shape="-543336.85,-4176473.71"/>
    <poly id="129877658" type="building" color="255,230,230" fill="1" layer="2.00" shape="-543336.85,-4176473.71"/>
    <poly id="129877670" type="building" color="255,230,230" fill="1" layer="2.00" shape="-543336.85,-4176473.71"/>
    <poly id="129877677" type="building" color="255,230,230" fill="1" layer="2.00" shape="-543336.85,-4176473.71"/>
    <poly id="129877713" type="building" color="255,230,230" fill="1" layer="2.00" shape="-543336.85,-4176473.70"/>
    <poly id="129877717" type="building" color="255,230,230" fill="1" layer="2.00" shape="-543336.85,-4176473.71"/>
    <poly id="129877825" type="building" color="255,230,230" fill="1" layer="2.00" shape="-543336.85,-4176473.71"/>
    <poly id="129877850" type="building" color="255,230,230" fill="1" layer="2.00" shape="-543336.85,-4176473.70"/>
    <poly id="129877857" type="building" color="255,230,230" fill="1" layer="2.00" shape="-543336.85,-4176473.71"/>
    <poly id="129877912" type="building" color="255,230,230" fill="1" layer="2.00" shape="-543336.85,-4176473.71"/>
    <poly id="129877947" type="building" color="255,230,230" fill="1" layer="2.00" shape="-543336.85,-4176473.70"/>
    <poly id="129877951" type="building" color="255,230,230" fill="1" layer="2.00" shape="-543336.85,-4176473.70"/>
    <poly id="129877966" type="building" color="255,230,230" fill="1" layer="2.00" shape="-543336.85,-4176473.71"/>
    <poly id="129877978" type="building" color="255,230,230" fill="1" layer="2.00" shape="-543336.85,-4176473.71"/>
    <poly id="129877996" type="building" color="255,230,230" fill="1" layer="2.00" shape="-543336.85,-4176473.71"/>
    <poly id="129878000" type="building" color="255,230,230" fill="1" layer="2.00" shape="-543336.85,-4176473.71"/>
    <poly id="129878025" type="building" color="255,230,230" fill="1" layer="2.00" shape="-543336.85,-4176473.70"/>
    <poly id="129878561" type="building" color="255,230,230" fill="1" layer="2.00" shape="-543336.85,-4176473.70"/>
    <poly id="129878564" type="building" color="255,230,230" fill="1" layer="2.00" shape="-543336.85,-4176473.70"/>
    <poly id="129878575" type="building" color="255,230,230" fill="1" layer="2.00" shape="-543336.85,-4176473.70"/>
    <poly id="129878584" type="building" color="255,230,230" fill="1" layer="2.00" shape="-543336.85,-4176473.71"/>
    <poly id="129878585" type="building" color="255,230,230" fill="1" layer="2.00" shape="-543336.85,-4176473.70"/>
    <poly id="129878591" type="building" color="255,230,230" fill="1" layer="2.00" shape="-543336.85,-4176473.71"/>
    <poly id="129878606" type="building" color="255,230,230" fill="1" layer="2.00" shape="-543336.85,-4176473.71"/>
    <poly id="129878608" type="building" color="255,230,230" fill="1" layer="2.00" shape="-543336.85,-4176473.71"/>
    <poly id="129878610" type="building" color="255,230,230" fill="1" layer="2.00" shape="-543336.85,-4176473.71"/>
    <poly id="129878619" type="building" color="255,230,230" fill="1" layer="2.00" shape="-543336.85,-4176473.70"/>
    <poly id="129878628" type="building" color="255,230,230" fill="1" layer="2.00" shape="-543336.85,-4176473.70"/>
    <poly id="129878631" type="building" color="255,230,230" fill="1" layer="2.00" shape="-543336.85,-4176473.71"/>
    <poly id="129878639" type="building" color="255,230,230" fill="1" layer="2.00" shape="-543336.85,-4176473.71"/>
    <poly id="129878646" type="building" color="255,230,230" fill="1" layer="2.00" shape="-543336.85,-4176473.71"/>
    <poly id="129878647" type="building" color="255,230,230" fill="1" layer="2.00" shape="-543336.85,-4176473.70"/>
    <poly id="129878651" type="building" color="255,230,230" fill="1" layer="2.00" shape="-543336.85,-4176473.70"/>
    <poly id="129878653" type="building" color="255,230,230" fill="1" layer="2.00" shape="-543336.85,-4176473.71"/>
    <poly id="129878657" type="building" color="255,230,230" fill="1" layer="2.00" shape="-543336.85,-4176473.70"/>
    <poly id="129878661" type="building" color="255,230,230" fill="1" layer="2.00" shape="-543336.85,-4176473.71"/>
    <poly id="129878666" type="building" color="255,230,230" fill="1" layer="2.00" shape="-543336.85,-4176473.70"/>
    <poly id="129878673" type="building" color="255,230,230" fill="1" layer="2.00" shape="-543336.85,-4176473.71"/>
    <poly id="129878681" type="building" color="255,230,230" fill="1" layer="2.00" shape="-543336.85,-4176473.71"/>
    <poly id="129878693" type="building" color="255,230,230" fill="1" layer="2.00" shape="-543336.85,-4176473.70"/>
    <poly id="129878699" type="building" color="255,230,230" fill="1" layer="2.00" shape="-543336.85,-4176473.70"/>
    <poly id="129878705" type="building" color="255,230,230" fill="1" layer="2.00" shape="-543336.85,-4176473.70"/>
    <poly id="129878731" type="building" color="255,230,230" fill="1" layer="2.00" shape="-543336.85,-4176473.71"/>
    <poly id="129881673" type="building" color="255,230,230" fill="1" layer="2.00" shape="-543336.85,-4176473.71"/>
    <poly id="129881674" type="building" color="255,230,230" fill="1" layer="2.00" shape="-543336.85,-4176473.71"/>
    <poly id="129881675" type="building" color="255,230,230" fill="1" layer="2.00" shape="-543336.85,-4176473.71"/>
    <poly id="129881678" type="building" color="255,230,230" fill="1" layer="2.00" shape="-543336.85,-4176473.70"/>
    <poly id="129881679" type="building" color="255,230,230" fill="1" layer="2.00" shape="-543336.85,-4176473.71"/>
    <poly id="129881681" type="building" color="255,230,230" fill="1" layer="2.00" shape="-543336.85,-4176473.71"/>
    <poly id="129881683" type="building" color="255,230,230" fill="1" layer="2.00" shape="-543336.85,-4176473.71"/>
    <poly id="129881684" type="building" color="255,230,230" fill="1" layer="2.00" shape="-543336.85,-4176473.71"/>
    <poly id="129881687" type="building" color="255,230,230" fill="1" layer="2.00" shape="-543336.85,-4176473.71"/>
    <poly id="129881688" type="building" color="255,230,230" fill="1" layer="2.00" shape="-543336.85,-4176473.71"/>
    <poly id="129881690" type="building" color="255,230,230" fill="1" layer="2.00" shape="-543336.85,-4176473.70"/>
    <poly id="129881692" type="building" color="255,230,230" fill="1" layer="2.00" shape="-543336.85,-4176473.71"/>
    <poly id="129881695" type="building" color="255,230,230" fill="1" layer="2.00" shape="-543336.85,-4176473.71"/>
    <poly id="129881697" type="building" color="255,230,230" fill="1" layer="2.00" shape="-543336.85,-4176473.71"/>
    <poly id="129881698" type="building" color="255,230,230" fill="1" layer="2.00" shape="-543336.85,-4176473.70"/>
    <poly id="129881702" type="building" color="255,230,230" fill="1" layer="2.00" shape="-543336.85,-4176473.71"/>
    <poly id="129881704" type="building" color="255,230,230" fill="1" layer="2.00" shape="-543336.85,-4176473.70"/>
    <poly id="129881706" type="building" color="255,230,230" fill="1" layer="2.00" shape="-543336.85,-4176473.70"/>
    <poly id="129881707" type="building" color="255,230,230" fill="1" layer="2.00" shape="-543336.85,-4176473.71"/>
    <poly id="129881709" type="building" color="255,230,230" fill="1" layer="2.00" shape="-543336.85,-4176473.70"/>
    <poly id="129881710" type="building" color="255,230,230" fill="1" layer="2.00" shape="-543336.85,-4176473.71"/>
    <poly id="129881711" type="building" color="255,230,230" fill="1" layer="2.00" shape="-543336.85,-4176473.70"/>
    <poly id="129881712" type="building" color="255,230,230" fill="1" layer="2.00" shape="-543336.85,-4176473.71"/>
    <poly id="129881713" type="building" color="255,230,230" fill="1" layer="2.00" shape="-543336.85,-4176473.70"/>
    <poly id="129881715" type="building" color="255,230,230" fill="1" layer="2.00" shape="-543336.85,-4176473.71"/>
    <poly id="129881718" type="building" color="255,230,230" fill="1" layer="2.00" shape="-543336.85,-4176473.71"/>
    <poly id="129881720" type="building" color="255,230,230" fill="1" layer="2.00" shape="-543336.85,-4176473.71"/>
    <poly id="129881721" type="building" color="255,230,230" fill="1" layer="2.00" shape="-543336.85,-4176473.70"/>
    <poly id="129881723" type="building" color="255,230,230" fill="1" layer="2.00" shape="-543336.85,-4176473.71"/>
    <poly id="129881724" type="building" color="255,230,230" fill="1" layer="2.00" shape="-543336.85,-4176473.70"/>
    <poly id="129881726" type="building" color="255,230,230" fill="1" layer="2.00" shape="-543336.85,-4176473.71"/>
    <poly id="129881730" type="building" color="255,230,230" fill="1" layer="2.00" shape="-543336.85,-4176473.70"/>
    <poly id="129881731" type="building" color="255,230,230" fill="1" layer="2.00" shape="-543336.85,-4176473.71"/>
    <poly id="129881734" type="building" color="255,230,230" fill="1" layer="2.00" shape="-543336.85,-4176473.71"/>
    <poly id="129881737" type="building" color="255,230,230" fill="1" layer="2.00" shape="-543336.85,-4176473.70"/>
    <poly id="129881740" type="building" color="255,230,230" fill="1" layer="2.00" shape="-543336.85,-4176473.71"/>
    <poly id="129881743" type="building" color="255,230,230" fill="1" layer="2.00" shape="-543336.85,-4176473.70"/>
    <poly id="129881744" type="building" color="255,230,230" fill="1" layer="2.00" shape="-543336.85,-4176473.71"/>
    <poly id="129881745" type="building" color="255,230,230" fill="1" layer="2.00" shape="-543336.85,-4176473.70"/>
    <poly id="129881748" type="building" color="255,230,230" fill="1" layer="2.00" shape="-543336.85,-4176473.71"/>
    <poly id="129881753" type="building" color="255,230,230" fill="1" layer="2.00" shape="-543336.85,-4176473.71"/>
    <poly id="129881754" type="building" color="255,230,230" fill="1" layer="2.00" shape="-543336.85,-4176473.71"/>
    <poly id="129881756" type="building" color="255,230,230" fill="1" layer="2.00" shape="-543336.85,-4176473.70"/>
    <poly id="129881758" type="building" color="255,230,230" fill="1" layer="2.00" shape="-543336.85,-4176473.71"/>
    <poly id="129881760" type="building" color="255,230,230" fill="1" layer="2.00" shape="-543336.85,-4176473.70"/>
    <poly id="129881769" type="building" color="255,230,230" fill="1" layer="2.00" shape="-543336.85,-4176473.70"/>
    <poly id="129881771" type="building" color="255,230,230" fill="1" layer="2.00" shape="-543336.85,-4176473.71"/>
    <poly id="129881773" type="building" color="255,230,230" fill="1" layer="2.00" shape="-543336.85,-4176473.71"/>
    <poly id="129881776" type="building" color="255,230,230" fill="1" layer="2.00" shape="-543336.85,-4176473.71"/>
    <poly id="129881778" type="building" color="255,230,230" fill="1" layer="2.00" shape="-543336.85,-4176473.71"/>
    <poly id="129881780" type="building" color="255,230,230" fill="1" layer="2.00" shape="-543336.85,-4176473.71"/>
    <poly id="129881786" type="building" color="255,230,230" fill="1" layer="2.00" shape="-543336.85,-4176473.70"/>
    <poly id="129881791" type="building" color="255,230,230" fill="1" layer="2.00" shape="-543336.85,-4176473.70"/>
    <poly id="129881797" type="building" color="255,230,230" fill="1" layer="2.00" shape="-543336.85,-4176473.71"/>
    <poly id="129903068" type="building" color="255,230,230" fill="1" layer="2.00" shape="-543336.85,-4176473.70"/>
    <poly id="129903069" type="building" color="255,230,230" fill="1" layer="2.00" shape="-543336.85,-4176473.70"/>
    <poly id="129903070" type="building" color="255,230,230" fill="1" layer="2.00" shape="-543336.85,-4176473.70"/>
    <poly id="129903074" type="building" color="255,230,230" fill="1" layer="2.00" shape="-543336.85,-4176473.70"/>
    <poly id="129903075" type="building" color="255,230,230" fill="1" layer="2.00" shape="-543336.85,-4176473.70"/>
    <poly id="129903076" type="building" color="255,230,230" fill="1" layer="2.00" shape="-543336.85,-4176473.70"/>
    <poly id="129903077" type="building" color="255,230,230" fill="1" layer="2.00" shape="-543336.85,-4176473.70"/>
    <poly id="129903078" type="building" color="255,230,230" fill="1" layer="2.00" shape="-543336.85,-4176473.71"/>
    <poly id="129903081" type="building" color="255,230,230" fill="1" layer="2.00" shape="-543336.85,-4176473.71"/>
    <poly id="129903082" type="building" color="255,230,230" fill="1" layer="2.00" shape="-543336.85,-4176473.70"/>
    <poly id="129903083" type="building" color="255,230,230" fill="1" layer="2.00" shape="-543336.85,-4176473.70"/>
    <poly id="129903084" type="building" color="255,230,230" fill="1" layer="2.00" shape="-543336.85,-4176473.71"/>
    <poly id="129903085" type="building" color="255,230,230" fill="1" layer="2.00" shape="-543336.85,-4176473.70"/>
    <poly id="129903088" type="building" color="255,230,230" fill="1" layer="2.00" shape="-543336.85,-4176473.70"/>
    <poly id="129903089" type="building" color="255,230,230" fill="1" layer="2.00" shape="-543336.85,-4176473.70"/>
    <poly id="129903090" type="building" color="255,230,230" fill="1" layer="2.00" shape="-543336.85,-4176473.70"/>
    <poly id="129903091" type="building" color="255,230,230" fill="1" layer="2.00" shape="-543336.85,-4176473.70"/>
    <poly id="129903092" type="building" color="255,230,230" fill="1" layer="2.00" shape="-543336.85,-4176473.71"/>
    <poly id="129903095" type="building" color="255,230,230" fill="1" layer="2.00" shape="-543336.85,-4176473.70"/>
    <poly id="129903096" type="building" color="255,230,230" fill="1" layer="2.00" shape="-543336.85,-4176473.70"/>
    <poly id="129903099" type="building" color="255,230,230" fill="1" layer="2.00" shape="-543336.85,-4176473.70"/>
    <poly id="129903100" type="building" color="255,230,230" fill="1" layer="2.00" shape="-543336.85,-4176473.70"/>
    <poly id="129903102" type="building" color="255,230,230" fill="1" layer="2.00" shape="-543336.85,-4176473.70"/>
    <poly id="129903104" type="building" color="255,230,230" fill="1" layer="2.00" shape="-543336.85,-4176473.70"/>
    <poly id="129903106" type="building" color="255,230,230" fill="1" layer="2.00" shape="-543336.85,-4176473.70"/>
    <poly id="129903107" type="building" color="255,230,230" fill="1" layer="2.00" shape="-543336.85,-4176473.71"/>
    <poly id="129903111" type="building" color="255,230,230" fill="1" layer="2.00" shape="-543336.85,-4176473.70"/>
    <poly id="129903112" type="building" color="255,230,230" fill="1" layer="2.00" shape="-543336.85,-4176473.70"/>
    <poly id="129903117" type="building" color="255,230,230" fill="1" layer="2.00" shape="-543336.85,-4176473.70"/>
    <poly id="129903118" type="building" color="255,230,230" fill="1" layer="2.00" shape="-543336.85,-4176473.70"/>
    <poly id="129903119" type="building" color="255,230,230" fill="1" layer="2.00" shape="-543336.85,-4176473.71"/>
    <poly id="129903121" type="building" color="255,230,230" fill="1" layer="2.00" shape="-543336.85,-4176473.70"/>
    <poly id="129903122" type="building" color="255,230,230" fill="1" layer="2.00" shape="-543336.85,-4176473.71"/>
    <poly id="129903124" type="building" color="255,230,230" fill="1" layer="2.00" shape="-543336.85,-4176473.70"/>
    <poly id="129903125" type="building" color="255,230,230" fill="1" layer="2.00" shape="-543336.85,-4176473.71"/>
    <poly id="129903126" type="building" color="255,230,230" fill="1" layer="2.00" shape="-543336.85,-4176473.70"/>
    <poly id="129903127" type="building" color="255,230,230" fill="1" layer="2.00" shape="-543336.85,-4176473.70"/>
    <poly id="129903128" type="building" color="255,230,230" fill="1" layer="2.00" shape="-543336.85,-4176473.71"/>
    <poly id="129903129" type="building" color="255,230,230" fill="1" layer="2.00" shape="-543336.85,-4176473.70"/>
    <poly id="129903131" type="building" color="255,230,230" fill="1" layer="2.00" shape="-543336.85,-4176473.70"/>
    <poly id="129903136" type="building" color="255,230,230" fill="1" layer="2.00" shape="-543336.85,-4176473.70"/>
    <poly id="129903139" type="building" color="255,230,230" fill="1" layer="2.00" shape="-543336.85,-4176473.70"/>
    <poly id="129903140" type="building" color="255,230,230" fill="1" layer="2.00" shape="-543336.85,-4176473.70"/>
    <poly id="129903142" type="building" color="255,230,230" fill="1" layer="2.00" shape="-543336.85,-4176473.71"/>
    <poly id="129903144" type="building" color="255,230,230" fill="1" layer="2.00" shape="-543336.85,-4176473.71"/>
    <poly id="129903145" type="building" color="255,230,230" fill="1" layer="2.00" shape="-543336.85,-4176473.70"/>
    <poly id="129903146" type="building" color="255,230,230" fill="1" layer="2.00" shape="-543336.85,-4176473.70"/>
    <poly id="129903148" type="building" color="255,230,230" fill="1" layer="2.00" shape="-543336.85,-4176473.70"/>
    <poly id="129903149" type="building" color="255,230,230" fill="1" layer="2.00" shape="-543336.85,-4176473.71"/>
    <poly id="129903150" type="building" color="255,230,230" fill="1" layer="2.00" shape="-543336.85,-4176473.70"/>
    <poly id="129903152" type="building" color="255,230,230" fill="1" layer="2.00" shape="-543336.85,-4176473.70"/>
    <poly id="129903154" type="building" color="255,230,230" fill="1" layer="2.00" shape="-543336.85,-4176473.70"/>
    <poly id="129903155" type="building" color="255,230,230" fill="1" layer="2.00" shape="-543336.85,-4176473.70"/>
    <poly id="129903156" type="building" color="255,230,230" fill="1" layer="2.00" shape="-543336.85,-4176473.70"/>
    <poly id="129903158" type="building" color="255,230,230" fill="1" layer="2.00" shape="-543336.85,-4176473.71"/>
    <poly id="129903159" type="building" color="255,230,230" fill="1" layer="2.00" shape="-543336.85,-4176473.70"/>
    <poly id="129903160" type="building" color="255,230,230" fill="1" layer="2.00" shape="-543336.85,-4176473.70"/>
    <poly id="129903161" type="building" color="255,230,230" fill="1" layer="2.00" shape="-543336.85,-4176473.70"/>
    <poly id="129903162" type="building" color="255,230,230" fill="1" layer="2.00" shape="-543336.85,-4176473.70"/>
    <poly id="129903165" type="building" color="255,230,230" fill="1" layer="2.00" shape="-543336.85,-4176473.70"/>
    <poly id="129903170" type="building" color="255,230,230" fill="1" layer="2.00" shape="-543336.85,-4176473.71"/>
    <poly id="129903171" type="building" color="255,230,230" fill="1" layer="2.00" shape="-543336.85,-4176473.71"/>
    <poly id="129903174" type="building" color="255,230,230" fill="1" layer="2.00" shape="-543336.85,-4176473.70"/>
    <poly id="129903176" type="building" color="255,230,230" fill="1" layer="2.00" shape="-543336.85,-4176473.70"/>
    <poly id="129903177" type="building" color="255,230,230" fill="1" layer="2.00" shape="-543336.85,-4176473.70"/>
    <poly id="129903179" type="building" color="255,230,230" fill="1" layer="2.00" shape="-543336.85,-4176473.70"/>
    <poly id="129903180" type="building" color="255,230,230" fill="1" layer="2.00" shape="-543336.85,-4176473.70"/>
    <poly id="129903184" type="building" color="255,230,230" fill="1" layer="2.00" shape="-543336.85,-4176473.70"/>
    <poly id="129903185" type="building" color="255,230,230" fill="1" layer="2.00" shape="-543336.85,-4176473.70"/>
    <poly id="129903186" type="building" color="255,230,230" fill="1" layer="2.00" shape="-543336.85,-4176473.71"/>
    <poly id="129903190" type="building" color="255,230,230" fill="1" layer="2.00" shape="-543336.85,-4176473.70"/>
    <poly id="129903192" type="building" color="255,230,230" fill="1" layer="2.00" shape="-543336.85,-4176473.71"/>
    <poly id="129903193" type="building" color="255,230,230" fill="1" layer="2.00" shape="-543336.85,-4176473.70"/>
    <poly id="129903195" type="building" color="255,230,230" fill="1" layer="2.00" shape="-543336.85,-4176473.70"/>
    <poly id="129903201" type="building" color="255,230,230" fill="1" layer="2.00" shape="-543336.85,-4176473.71"/>
    <poly id="129903205" type="building" color="255,230,230" fill="1" layer="2.00" shape="-543336.85,-4176473.70"/>
    <poly id="129903207" type="building" color="255,230,230" fill="1" layer="2.00" shape="-543336.85,-4176473.71"/>
    <poly id="129903210" type="building" color="255,230,230" fill="1" layer="2.00" shape="-543336.85,-4176473.70"/>
    <poly id="129903211" type="building" color="255,230,230" fill="1" layer="2.00" shape="-543336.85,-4176473.70"/>
    <poly id="129903214" type="building" color="255,230,230" fill="1" layer="2.00" shape="-543336.85,-4176473.70"/>
    <poly id="129903216" type="building" color="255,230,230" fill="1" layer="2.00" shape="-543336.85,-4176473.71"/>
    <poly id="129903217" type="building" color="255,230,230" fill="1" layer="2.00" shape="-543336.85,-4176473.70"/>
    <poly id="129903220" type="building" color="255,230,230" fill="1" layer="2.00" shape="-543336.85,-4176473.70"/>
    <poly id="129903224" type="building" color="255,230,230" fill="1" layer="2.00" shape="-543336.85,-4176473.70"/>
    <poly id="129903228" type="building" color="255,230,230" fill="1" layer="2.00" shape="-543336.85,-4176473.70"/>
    <poly id="129903229" type="building" color="255,230,230" fill="1" layer="2.00" shape="-543336.85,-4176473.71"/>
    <poly id="129903230" type="building" color="255,230,230" fill="1" layer="2.00" shape="-543336.85,-4176473.70"/>
    <poly id="129903231" type="building" color="255,230,230" fill="1" layer="2.00" shape="-543336.85,-4176473.71"/>
    <poly id="129903233" type="building" color="255,230,230" fill="1" layer="2.00" shape="-543336.85,-4176473.70"/>
    <poly id="129903235" type="building" color="255,230,230" fill="1" layer="2.00" shape="-543336.85,-4176473.71"/>
    <poly id="129903236" type="building" color="255,230,230" fill="1" layer="2.00" shape="-543336.85,-4176473.70"/>
    <poly id="129903237" type="building" color="255,230,230" fill="1" layer="2.00" shape="-543336.85,-4176473.70"/>
    <poly id="129903240" type="building" color="255,230,230" fill="1" layer="2.00" shape="-543336.85,-4176473.70"/>
    <poly id="129903241" type="building" color="255,230,230" fill="1" layer="2.00" shape="-543336.85,-4176473.70"/>
    <poly id="129903243" type="building" color="255,230,230" fill="1" layer="2.00" shape="-543336.85,-4176473.70"/>
    <poly id="129903244" type="building" color="255,230,230" fill="1" layer="2.00" shape="-543336.85,-4176473.70"/>
    <poly id="129903245" type="building" color="255,230,230" fill="1" layer="2.00" shape="-543336.85,-4176473.70"/>
    <poly id="129903249" type="building" color="255,230,230" fill="1" layer="2.00" shape="-543336.85,-4176473.70"/>
    <poly id="129903251" type="building" color="255,230,230" fill="1" layer="2.00" shape="-543336.85,-4176473.70"/>
    <poly id="129903253" type="building" color="255,230,230" fill="1" layer="2.00" shape="-543336.85,-4176473.70"/>
    <poly id="129903255" type="building" color="255,230,230" fill="1" layer="2.00" shape="-543336.85,-4176473.70"/>
    <poly id="129903256" type="building" color="255,230,230" fill="1" layer="2.00" shape="-543336.85,-4176473.70"/>
    <poly id="129903257" type="building" color="255,230,230" fill="1" layer="2.00" shape="-543336.85,-4176473.71"/>
    <poly id="129903258" type="building" color="255,230,230" fill="1" layer="2.00" shape="-543336.85,-4176473.70"/>
    <poly id="129903259" type="building" color="255,230,230" fill="1" layer="2.00" shape="-543336.85,-4176473.70"/>
    <poly id="129903261" type="building" color="255,230,230" fill="1" layer="2.00" shape="-543336.85,-4176473.70"/>
    <poly id="129903262" type="building" color="255,230,230" fill="1" layer="2.00" shape="-543336.85,-4176473.71"/>
    <poly id="129903265" type="building" color="255,230,230" fill="1" layer="2.00" shape="-543336.85,-4176473.71"/>
    <poly id="129903267" type="building" color="255,230,230" fill="1" layer="2.00" shape="-543336.85,-4176473.70"/>
    <poly id="129903268" type="building" color="255,230,230" fill="1" layer="2.00" shape="-543336.85,-4176473.70"/>
    <poly id="129903269" type="building" color="255,230,230" fill="1" layer="2.00" shape="-543336.85,-4176473.70"/>
    <poly id="129903270" type="building" color="255,230,230" fill="1" layer="2.00" shape="-543336.85,-4176473.70"/>
    <poly id="129903271" type="building" color="255,230,230" fill="1" layer="2.00" shape="-543336.85,-4176473.70"/>
    <poly id="129903272" type="building" color="255,230,230" fill="1" layer="2.00" shape="-543336.85,-4176473.70"/>
    <poly id="129903277" type="building" color="255,230,230" fill="1" layer="2.00" shape="-543336.85,-4176473.70"/>
    <poly id="129903278" type="building" color="255,230,230" fill="1" layer="2.00" shape="-543336.85,-4176473.70"/>
    <poly id="129903280" type="building" color="255,230,230" fill="1" layer="2.00" shape="-543336.85,-4176473.70"/>
    <poly id="129903282" type="building" color="255,230,230" fill="1" layer="2.00" shape="-543336.85,-4176473.71"/>
    <poly id="129903283" type="building" color="255,230,230" fill="1" layer="2.00" shape="-543336.85,-4176473.70"/>
    <poly id="129903285" type="building" color="255,230,230" fill="1" layer="2.00" shape="-543336.85,-4176473.71"/>
    <poly id="129903287" type="building" color="255,230,230" fill="1" layer="2.00" shape="-543336.85,-4176473.70"/>
    <poly id="129903288" type="building" color="255,230,230" fill="1" layer="2.00" shape="-543336.85,-4176473.70"/>
    <poly id="129903289" type="building" color="255,230,230" fill="1" layer="2.00" shape="-543336.85,-4176473.70"/>
    <poly id="129903291" type="building" color="255,230,230" fill="1" layer="2.00" shape="-543336.85,-4176473.71"/>
    <poly id="129903294" type="building" color="255,230,230" fill="1" layer="2.00" shape="-543336.85,-4176473.70"/>
    <poly id="129903295" type="building" color="255,230,230" fill="1" layer="2.00" shape="-543336.85,-4176473.70"/>
    <poly id="129903296" type="building" color="255,230,230" fill="1" layer="2.00" shape="-543336.85,-4176473.70"/>
    <poly id="129903298" type="building" color="255,230,230" fill="1" layer="2.00" shape="-543336.85,-4176473.70"/>
    <poly id="129903299" type="building" color="255,230,230" fill="1" layer="2.00" shape="-543336.85,-4176473.70"/>
    <poly id="129903300" type="building" color="255,230,230" fill="1" layer="2.00" shape="-543336.85,-4176473.70"/>
    <poly id="129903301" type="building" color="255,230,230" fill="1" layer="2.00" shape="-543336.85,-4176473.70"/>
    <poly id="129903305" type="building" color="255,230,230" fill="1" layer="2.00" shape="-543336.85,-4176473.70"/>
    <poly id="129903309" type="building" color="255,230,230" fill="1" layer="2.00" shape="-543336.85,-4176473.70"/>
    <poly id="129903310" type="building" color="255,230,230" fill="1" layer="2.00" shape="-543336.85,-4176473.71"/>
    <poly id="129903317" type="building" color="255,230,230" fill="1" layer="2.00" shape="-543336.85,-4176473.70"/>
    <poly id="129903318" type="building" color="255,230,230" fill="1" layer="2.00" shape="-543336.85,-4176473.71"/>
    <poly id="129903319" type="building" color="255,230,230" fill="1" layer="2.00" shape="-543336.85,-4176473.70"/>
    <poly id="129903321" type="building" color="255,230,230" fill="1" layer="2.00" shape="-543336.85,-4176473.70"/>
    <poly id="129903323" type="building" color="255,230,230" fill="1" layer="2.00" shape="-543336.85,-4176473.70"/>
    <poly id="129903324" type="building" color="255,230,230" fill="1" layer="2.00" shape="-543336.85,-4176473.71"/>
    <poly id="129903326" type="building" color="255,230,230" fill="1" layer="2.00" shape="-543336.85,-4176473.70"/>
    <poly id="129903328" type="building" color="255,230,230" fill="1" layer="2.00" shape="-543336.85,-4176473.71"/>
    <poly id="129903330" type="building" color="255,230,230" fill="1" layer="2.00" shape="-543336.85,-4176473.70"/>
    <poly id="129903334" type="building" color="255,230,230" fill="1" layer="2.00" shape="-543336.85,-4176473.70"/>
    <poly id="129903336" type="building" color="255,230,230" fill="1" layer="2.00" shape="-543336.85,-4176473.71"/>
    <poly id="129903338" type="building" color="255,230,230" fill="1" layer="2.00" shape="-543336.85,-4176473.70"/>
    <poly id="129903340" type="building" color="255,230,230" fill="1" layer="2.00" shape="-543336.85,-4176473.70"/>
    <poly id="129903341" type="building" color="255,230,230" fill="1" layer="2.00" shape="-543336.85,-4176473.71"/>
    <poly id="129903342" type="building" color="255,230,230" fill="1" layer="2.00" shape="-543336.85,-4176473.71"/>
    <poly id="129903343" type="building" color="255,230,230" fill="1" layer="2.00" shape="-543336.85,-4176473.70"/>
    <poly id="129903344" type="building" color="255,230,230" fill="1" layer="2.00" shape="-543336.85,-4176473.70"/>
    <poly id="129903345" type="building" color="255,230,230" fill="1" layer="2.00" shape="-543336.85,-4176473.70"/>
    <poly id="129903346" type="building" color="255,230,230" fill="1" layer="2.00" shape="-543336.85,-4176473.70"/>
    <poly id="129903347" type="building" color="255,230,230" fill="1" layer="2.00" shape="-543336.85,-4176473.70"/>
    <poly id="129903348" type="building" color="255,230,230" fill="1" layer="2.00" shape="-543336.85,-4176473.70"/>