<?xml version="1.0" encoding="UTF-8"?>

<!-- generated on Thu Jun 26 10:54:06 2014 by SUMO duarouter Version 0.20.0
<?xml version="1.0" encoding="UTF-8"?>

<configuration xmlns:xsi="http://www.w3.org/2001/XMLSchema-instance" xsi:noNamespaceSchemaLocation="http://sumo-sim.org/xsd/duarouterConfiguration.xsd">

    <input>
        <net-file value="valencia.net.xml"/>
        <trip-files value="valencia.trips.xml"/>
    </input>

    <output>
        <output-file value="valencia.rou.xml"/>
    </output>

    <processing>
        <repair value="true"/>
    </processing>

</configuration>
-->

<routes xmlns:xsi="http://www.w3.org/2001/XMLSchema-instance" xsi:noNamespaceSchemaLocation="http://sumo-sim.org/xsd/routes_file.xsd">
    <vehicle id="0" depart="0.00">
        <route edges="98711543#1 6277183#3 4693573#2 4693573#3 6277192#0 6277192#1 6277192#2 41998660#0 41998660#1 5098790#4 5136439 171836908 171836910#0 171836910#1 171836910#2 5136425#0 5136425#1 5136425#2 5136425#3 95512936 5136426#0 5136426#1 95512940#0 95512940#1 5011428#0 5011428#1 5011428#2 5011428#3 5011428#4 94131894#3 94131894#4 94131894#5 94131894#6 5002138#0 5002138#1 5002138#2 5002138#3 188336807#0 188336807#1 188336807#2 188336807#3 188336807#4 4721158#0"/>
    </vehicle>
    <vehicle id="1" depart="1.00">
        <route edges="7666182 7666172#0 7666172#1 42165762 7666169#0"/>
    </vehicle>
    <vehicle id="2" depart="2.00">
        <route edges="52092233 98711532#5 98711532#6 98711532#7 98711534#1 98711543#0 98711543#1 98711543#2 41197564 9281469#0 9281469#1 9272727#0 9272727#1 9272727#2 41197565 41197566 41199037#0 23160075#0 23160075#1 191188189#6 191188189#7 41336010"/>
    </vehicle>
    <vehicle id="3" depart="3.00">
        <route edges="6277183#0 98711543#1 6277183#3 4693573#2 4693573#3 6277192#0 6277192#1 6277192#2 41998660#0 41998660#1 5098790#4 5136439 171836908 171836910#0 171836910#1 171836910#2 5136425#0 5136425#1 5136425#2 5136425#3 95512936 5136426#0 5136426#1 95512940#0 95512940#1 5011428#0 5011428#1 5011428#2 5011428#3 5011428#4 94131894#3 94131894#4 94131894#5 94131894#6 94131894#7 114102533#0 114102533#1 5007141 5011424"/>
    </vehicle>
    <vehicle id="4" depart="4.00">
        <route edges="61044481#2 61044481#3 94124278#0 94124278#1 94124278#2 98711555 4721157#0"/>
    </vehicle>
    <vehicle id="5" depart="5.00">
        <route edges="11993590#1 52092237#0 52092237#1 115101124 52092227#0 52092227#1 52092227#2 52092230#0 52092230#1 52092230#2 52092230#3 52092230#4 52092230#6 52092230#7 52092230#9 4758622#0 4758622#1 4758622#2 12459675#0 12459675#1 12459675#2 174342806#0 174342806#1"/>
    </vehicle>
    <vehicle id="6" depart="6.00">
        <route edges="41336010 23167757#1 41199037#0 41199037#1 95516883 9281161#0 9281161#1 41199032 41197565 12346820#0"/>
    </vehicle>
    <vehicle id="7" depart="7.00">
        <route edges="5011435#3 60432371#0 60432371#1 95512944#0 95512944#1 95512944#2 5073110#0 5073110#1 52348250#0 52348250#1 52348250#2"/>
    </vehicle>
    <vehicle id="8" depart="8.00">
        <route edges="191188189#0 23396934#1 23396934#1-AddedOffRampEdge 23396934#2 23396934#3 23396934#4 10380376#2 10380376#3 10380405 10380406 186070781 186070768#0 186070768#1 11993590#1 52092237#0 11993591 52092236#0 52092236#1 52092236#2 52092236#3 19873385 6277192#0 6277192#1 6277192#2 41998660#0 41998660#1 5098790#4 5136439 171836908 171836910#0 171836910#1 171836910#2 5136425#0 5136425#1 5136425#2 5136425#3"/>
    </vehicle>
    <vehicle id="9" depart="9.00">
        <route edges="7970451 7970445#1 6277222#0 6277222#1 5098790#0 5098790#1 5098790#2 5098790#3 5098790#4 5136439 171836908 171836910#0 171836910#1 171836910#2 5098787#2 99093093#0 99093093#1 99093093#2 95512934#3 5011435#0 5011435#1 5011435#2 5011435#3 60432371#0 60432371#1 95512944#0 95512944#1 95512944#2 95512944#3 95512944#4 4704753"/>
    </vehicle>
    <vehicle id="10" depart="10.00">
        <route edges="20609091#2 20609091#3 20609091#4 41998660#0 41998660#1 5098790#4 5136439 171836908 171836910#0 171836910#1 171836910#2 5136425#0 5136425#1 5136425#2 5136425#3 95512936 5136426#0 5136426#1 95512940#0 95512940#1 5011428#0 5011428#1 5011428#2 5011428#3 5011428#4 5002131#0 5002131#1 5002131#2 37064495#0 37064495#1 98711555 4721157#0 4721157#1 4823221#0 4823221#1 4823221#2"/>
    </vehicle>
    <vehicle id="11" depart="11.00">
        <route edges="91862697#0 -91862697#0 211244245#0 5073109#0 5073109#1 5073109#2 5073109#3 5073109#4 5073109#5 5073109#6 95512944#1 95512944#2 95512944#3 95512944#4 212738032 4890108#0 4890108#1 4890108#2 4890108#3"/>
    </vehicle>
    <vehicle id="12" depart="12.00">
        <route edges="24010163 12081673#5 12081673#6 12081673#7 12081673#8 12081673#9 12081673#10 23113289#1 23113289#2 9281538#3 9281538#4 9281538#5 9281538#6 9281538#7 9281538#8 9281538#9 9281161#0 9281161#1 41199032 41197565 12346820#0 23167758#0 23167758#1 23167758#2 23167758#3 10380376#3 10380405 10380406 186070781 186070771#0"/>
    </vehicle>
    <vehicle id="13" depart="13.00">
        <route edges="5073110#0 5073115#1 52348249 5073109#5 5073109#6 95512944#1 95512944#2 95512944#3 95512944#4 212738032 5011434#0 5011434#1 5011434#2 5011434#3 5011434#4 61044478 5136430#2 61044479 5136429 5098777#1 5098775#0 5098775#1 5098775#2 5098775#3 115600558#0 115600558#1 115600558#2 61720123 115600564#0 115600564#1 115600564#2 115600564#3 115600564#4 115600564#5 115600564#6 115600564#7 52092229#0 52092229#1 52092229#3 52092228#0 52092228#1 115101123#2"/>
    </vehicle>
    <vehicle id="14" depart="14.00">
        <route edges="52092230#4 52092230#6 52092230#7 52092230#9 5098774#0 5098774#0-AddedOffRampEdge 5098774#1 5098774#2 5011435#0 5011435#1 5011435#2 5011435#3 60432371#0 60432371#1 95512944#0 95512944#1 95512944#2 95512944#3 95512944#4 212738032 5136444#0 5136444#1 5136444#2"/>
    </vehicle>
    <vehicle id="15" depart="15.00">
        <route edges="52092247#1 52092248 52092245 52092246 52092242#0 52092242#1 52092243 41199033#1 41998656#0 41998656#1 20609062 20609073 20609082#0 20609082#1 41199034 10249522#0 10249522#1 10249522#1-AddedOffRampEdge 10249515#0 10249515#1 10249515#2 10249515#3 10249515#4 10249515#5"/>
    </vehicle>
    <vehicle id="16" depart="16.00">
        <route edges="24010162 9281538#5 9281538#6 9281538#7 9281538#8 9281538#9 9281161#0 9281161#1 9281460#0 9281460#1 9281460#2 9281477 9273666 4693573#0 4693573#1 4693573#2 4693573#3 98711574#1 19873389 98711532#7 98711534#1"/>
    </vehicle>
    <vehicle id="17" depart="17.00">
        <route edges="98711537#0 98711537#2 98711537#3 98711537#4 98711537#6 98711537#7 4758622#0 4758622#1 12403459#0 12403459#1"/>
    </vehicle>
</routes>
