<?xml version="1.0" encoding="UTF-8"?>

<!-- generated on Fri Jun 20 16:54:30 2014 by SUMO polyconvert Version 0.17.1
<?xml version="1.0" encoding="UTF-8"?>

<configuration xmlns:xsi="http://www.w3.org/2001/XMLSchema-instance" xsi:noNamespaceSchemaLocation="http://sumo.sf.net/xsd/polyconvertConfiguration.xsd">

    <input>
        <net-file value="valencia.net.xml"/>
        <osm-files value="valencia.osm"/>
        <type-file value="typemap.xml"/>
    </input>

    <output>
        <output-file value="valencia.poly.xml"/>
    </output>

</configuration>
-->

<shapes>
    <poly id="10120283" type="building" color="255,230,230" fill="1" layer="2.00" shape="-721602.13,-4370162.94"/>
    <poly id="10120283#1" type="shop" color="237,199,255" fill="1" layer="2.00" shape="-721602.13,-4370162.94"/>
    <poly id="10153012" type="building" color="255,230,230" fill="1" layer="2.00" shape="-721602.14,-4370162.94"/>
    <poly id="10249512" type="amenity" color="237,199,199" fill="1" layer="2.00" shape="-721602.12,-4370162.94"/>
    <poly id="10249512#1" type="building" color="255,230,230" fill="1" layer="2.00" shape="-721602.12,-4370162.94"/>
    <poly id="104676021" type="residential" color="235,235,227" fill="1" layer="-11.00" shape="-721602.14,-4370162.95"/>
    <poly id="10532175" type="military" color="153,153,92" fill="1" layer="-10.00" shape="-721602.12,-4370162.94"/>
    <poly id="10532176" type="military" color="153,153,92" fill="1" layer="-10.00" shape="-721602.12,-4370162.94"/>
    <poly id="10532177" type="amenity" color="237,199,199" fill="1" layer="2.00" shape="-721602.12,-4370162.94"/>
    <poly id="118397987" type="building" color="255,230,230" fill="1" layer="2.00" shape="-721602.13,-4370162.94"/>
    <poly id="118397987#1" type="shop" color="237,199,255" fill="1" layer="2.00" shape="-721602.13,-4370162.94"/>
    <poly id="118397988" type="building" color="255,230,230" fill="1" layer="2.00" shape="-721602.13,-4370162.94"/>
    <poly id="118397988#1" type="shop" color="237,199,255" fill="1" layer="2.00" shape="-721602.13,-4370162.94"/>
    <poly id="11993597" type="tourism" color="207,245,201" fill="1" layer="-10.00" shape="-721602.12,-4370162.95"/>
    <poly id="11993631" type="tourism" color="207,245,201" fill="1" layer="-10.00" shape="-721602.13,-4370162.95"/>
    <poly id="12403444" type="tourism" color="207,245,201" fill="1" layer="-10.00" shape="-721602.13,-4370162.95"/>
    <poly id="12767391" type="tourism" color="207,245,201" fill="1" layer="-10.00" shape="-721602.12,-4370162.95"/>
    <poly id="135638444" type="amenity" color="237,199,199" fill="1" layer="2.00" shape="-721602.14,-4370162.94"/>
    <poly id="135638555" type="building" color="255,230,230" fill="1" layer="2.00" shape="-721602.14,-4370162.94"/>
    <poly id="135638556" type="building" color="255,230,230" fill="1" layer="2.00" shape="-721602.14,-4370162.94"/>
    <poly id="14362485" type="tourism" color="207,245,201" fill="1" layer="-10.00" shape="-721602.12,-4370162.94"/>
    <poly id="14362511" type="tourism" color="207,245,201" fill="1" layer="-10.00" shape="-721602.12,-4370162.94"/>
    <poly id="150277197" type="building" color="255,230,230" fill="1" layer="2.00" shape="-721602.12,-4370162.94"/>
    <poly id="150277197#1" type="tourism" color="207,245,201" fill="1" layer="2.00" shape="-721602.12,-4370162.94"/>
    <poly id="150277198" type="amenity" color="237,199,199" fill="1" layer="2.00" shape="-721602.12,-4370162.94"/>
    <poly id="150277198#1" type="building" color="255,230,230" fill="1" layer="2.00" shape="-721602.12,-4370162.94"/>
    <poly id="150277198#2" type="sport" color="79,230,125" fill="1" layer="2.00" shape="-721602.12,-4370162.94"/>
    <poly id="160783135" type="leisure" color="207,245,201" fill="1" layer="0.00" shape="-721602.12,-4370162.94"/>
    <poly id="160783138" type="leisure" color="207,245,201" fill="1" layer="0.00" shape="-721602.12,-4370162.94"/>
    <poly id="160783140" type="leisure" color="207,245,201" fill="1" layer="0.00" shape="-721602.12,-4370162.95"/>
    <poly id="160783144" type="leisure" color="207,245,201" fill="1" layer="0.00" shape="-721602.12,-4370162.94"/>
    <poly id="160783146" type="natural" color="140,196,107" fill="1" layer="2.00" shape="-721602.12,-4370162.95"/>
    <poly id="160783147" type="leisure" color="207,245,201" fill="1" layer="0.00" shape="-721602.12,-4370162.94"/>
    <poly id="160783155" type="leisure" color="207,245,201" fill="1" layer="0.00" shape="-721602.12,-4370162.94"/>
    <poly id="160783156" type="leisure" color="207,245,201" fill="1" layer="0.00" shape="-721602.12,-4370162.94"/>
    <poly id="160783164" type="leisure" color="207,245,201" fill="1" layer="0.00" shape="-721602.12,-4370162.94"/>
    <poly id="165500962" type="tourism" color="207,245,201" fill="1" layer="-10.00" shape="-721602.12,-4370162.94"/>
    <poly id="176509562" type="leisure" color="207,245,201" fill="1" layer="0.00" shape="-721602.14,-4370162.94"/>
    <poly id="176509562#1" type="natural" color="140,196,107" fill="1" layer="2.00" shape="-721602.14,-4370162.94"/>
    <poly id="176509562#2" type="tourism" color="207,245,201" fill="1" layer="2.00" shape="-721602.14,-4370162.94"/>
    <poly id="187017777" type="tourism" color="207,245,201" fill="1" layer="-10.00" shape="-721602.14,-4370162.94"/>
    <poly id="19869593" type="building" color="255,230,230" fill="1" layer="2.00" shape="-721602.14,-4370162.94"/>
    <poly id="19869593#1" type="leisure" color="207,245,201" fill="1" layer="0.00" shape="-721602.14,-4370162.94"/>
    <poly id="19873364" type="leisure" color="207,245,201" fill="1" layer="0.00" shape="-721602.12,-4370162.94"/>
    <poly id="19873365" type="leisure" color="207,245,201" fill="1" layer="0.00" shape="-721602.13,-4370162.94"/>
    <poly id="19873367" type="leisure" color="207,245,201" fill="1" layer="0.00" shape="-721602.13,-4370162.94"/>
    <poly id="19873368" type="leisure" color="207,245,201" fill="1" layer="0.00" shape="-721602.13,-4370162.94"/>
    <poly id="19873370" type="leisure" color="207,245,201" fill="1" layer="0.00" shape="-721602.13,-4370162.94"/>
    <poly id="19873371" type="leisure" color="207,245,201" fill="1" layer="0.00" shape="-721602.13,-4370162.94"/>
    <poly id="19873373" type="leisure" color="207,245,201" fill="1" layer="0.00" shape="-721602.13,-4370162.94"/>
    <poly id="19873374" type="leisure" color="207,245,201" fill="1" layer="0.00" shape="-721602.13,-4370162.94"/>
    <poly id="19873375" type="leisure" color="207,245,201" fill="1" layer="0.00" shape="-721602.13,-4370162.94"/>
    <poly id="19873376" type="leisure" color="207,245,201" fill="1" layer="0.00" shape="-721602.13,-4370162.94"/>
    <poly id="19873377" type="leisure" color="207,245,201" fill="1" layer="0.00" shape="-721602.13,-4370162.94"/>
    <poly id="19873378" type="leisure" color="207,245,201" fill="1" layer="0.00" shape="-721602.13,-4370162.94"/>
    <poly id="19873379" type="leisure" color="207,245,201" fill="1" layer="0.00" shape="-721602.13,-4370162.94"/>
    <poly id="19873380" type="leisure" color="207,245,201" fill="1" layer="0.00" shape="-721602.13,-4370162.94"/>
    <poly id="19873381" type="leisure" color="207,245,201" fill="1" layer="0.00" shape="-721602.13,-4370162.94"/>
    <poly id="19873383" type="leisure" color="207,245,201" fill="1" layer="0.00" shape="-721602.13,-4370162.94"/>
    <poly id="19873384" type="leisure" color="207,245,201" fill="1" layer="0.00" shape="-721602.13,-4370162.94"/>
    <poly id="19873400" type="leisure" color="207,245,201" fill="1" layer="0.00" shape="-721602.13,-4370162.94"/>
    <poly id="20609086" type="water" color="181,209,209" fill="1" layer="-10.00" shape="-721602.12,-4370162.94"/>
    <poly id="227915013" type="amenity" color="237,199,199" fill="1" layer="2.00" shape="-721602.13,-4370162.94"/>
    <poly id="227915013#1" type="building" color="255,230,230" fill="1" layer="2.00" shape="-721602.13,-4370162.94"/>
    <poly id="227916538" type="amenity" color="237,199,199" fill="1" layer="2.00" shape="-721602.13,-4370162.94"/>
    <poly id="227916538#1" type="building" color="255,230,230" fill="1" layer="2.00" shape="-721602.13,-4370162.94"/>
    <poly id="23167750" type="building" color="255,230,230" fill="1" layer="2.00" shape="-721602.12,-4370162.94"/>
    <poly id="23167751" type="building" color="255,230,230" fill="1" layer="2.00" shape="-721602.12,-4370162.94"/>
    <poly id="23167752" type="building" color="255,230,230" fill="1" layer="2.00" shape="-721602.12,-4370162.94"/>
    <poly id="23167753" type="building" color="255,230,230" fill="1" layer="2.00" shape="-721602.12,-4370162.94"/>
    <poly id="23167754" type="building" color="255,230,230" fill="1" layer="2.00" shape="-721602.12,-4370162.94"/>
    <poly id="23167755" type="building" color="255,230,230" fill="1" layer="2.00" shape="-721602.12,-4370162.94"/>
    <poly id="23167759" type="leisure" color="207,245,201" fill="1" layer="0.00" shape="-721602.12,-4370162.94"/>
    <poly id="23309512" type="amenity" color="237,199,199" fill="1" layer="2.00" shape="-721602.13,-4370162.94"/>
    <poly id="23309512#1" type="building" color="255,230,230" fill="1" layer="2.00" shape="-721602.13,-4370162.94"/>
    <poly id="23309513" type="building" color="255,230,230" fill="1" layer="2.00" shape="-721602.13,-4370162.94"/>
    <poly id="23360930" type="amenity" color="237,199,199" fill="1" layer="2.00" shape="-721602.14,-4370162.94"/>
    <poly id="23377878" type="amenity" color="237,199,199" fill="1" layer="2.00" shape="-721602.13,-4370162.94"/>
    <poly id="23377878#1" type="building" color="255,230,230" fill="1" layer="2.00" shape="-721602.13,-4370162.94"/>
    <poly id="23377879" type="building" color="255,230,230" fill="1" layer="2.00" shape="-721602.14,-4370162.94"/>
    <poly id="23377879#1" type="tourism" color="207,245,201" fill="1" layer="2.00" shape="-721602.14,-4370162.94"/>
    <poly id="23377880" type="amenity" color="237,199,199" fill="1" layer="2.00" shape="-721602.13,-4370162.94"/>
    <poly id="239784943" type="amenity" color="237,199,199" fill="1" layer="2.00" shape="-721602.14,-4370162.94"/>
    <poly id="243228908" type="leisure" color="207,245,201" fill="1" layer="0.00" shape="-721602.13,-4370162.94"/>
    <poly id="25606670" type="building" color="255,230,230" fill="1" layer="2.00" shape="-721602.14,-4370162.94"/>
    <poly id="25606671" type="building" color="255,230,230" fill="1" layer="2.00" shape="-721602.14,-4370162.94"/>
    <poly id="25606677" type="building" color="255,230,230" fill="1" layer="2.00" shape="-721602.14,-4370162.94"/>
    <poly id="264162531" type="leisure" color="207,245,201" fill="1" layer="0.00" shape="-721602.14,-4370162.94"/>
    <poly id="264162532" type="leisure" color="207,245,201" fill="1" layer="0.00" shape="-721602.14,-4370162.94"/>
    <poly id="265047659" type="leisure" color="207,245,201" fill="1" layer="0.00" shape="-721602.14,-4370162.94"/>
    <poly id="269005240" type="leisure" color="207,245,201" fill="1" layer="0.00" shape="-721602.12,-4370162.94"/>
    <poly id="269005242" type="leisure" color="207,245,201" fill="1" layer="0.00" shape="-721602.12,-4370162.94"/>
    <poly id="269005243" type="leisure" color="207,245,201" fill="1" layer="0.00" shape="-721602.12,-4370162.94"/>
    <poly id="269011033" type="building" color="255,230,230" fill="1" layer="2.00" shape="-721602.12,-4370162.94"/>
    <poly id="269011034" type="building" color="255,230,230" fill="1" layer="2.00" shape="-721602.12,-4370162.94"/>
    <poly id="269011036" type="water" color="181,209,209" fill="1" layer="-10.00" shape="-721602.12,-4370162.94"/>
    <poly id="269011037" type="leisure" color="207,245,201" fill="1" layer="0.00" shape="-721602.12,-4370162.94"/>
    <poly id="269011038" type="leisure" color="207,245,201" fill="1" layer="0.00" shape="-721602.12,-4370162.94"/>
    <poly id="27130667" type="amenity" color="237,199,199" fill="1" layer="2.00" shape="-721602.12,-4370162.94"/>
    <poly id="27130667#1" type="water" color="181,209,209" fill="1" layer="-10.00" shape="-721602.12,-4370162.94"/>
    <poly id="27130679" type="leisure" color="207,245,201" fill="1" layer="0.00" shape="-721602.12,-4370162.94"/>
    <poly id="27130680" type="leisure" color="207,245,201" fill="1" layer="0.00" shape="-721602.12,-4370162.94"/>
    <poly id="27260854" type="landuse" color="194,194,130" fill="1" layer="-4.00" shape="-721602.12,-4370162.94"/>
    <poly id="273350127" type="building" color="255,230,230" fill="1" layer="2.00" shape="-721602.12,-4370162.94"/>
    <poly id="278538739" type="leisure" color="207,245,201" fill="1" layer="0.00" shape="-721602.12,-4370162.94"/>
    <poly id="278915464" type="building" color="255,230,230" fill="1" layer="2.00" shape="-721602.12,-4370162.94"/>
    <poly id="278915464#1" type="tourism" color="207,245,201" fill="1" layer="2.00" shape="-721602.12,-4370162.94"/>
    <poly id="278995571" type="building" color="255,230,230" fill="1" layer="2.00" shape="-721602.12,-4370162.94"/>
    <poly id="278995572" type="building" color="255,230,230" fill="1" layer="2.00" shape="-721602.12,-4370162.94"/>
    <poly id="279000423" type="landuse" color="194,194,130" fill="1" layer="-4.00" shape="-721602.12,-4370162.94"/>
    <poly id="279112526" type="leisure" color="207,245,201" fill="1" layer="0.00" shape="-721602.12,-4370162.94"/>
    <poly id="279259546" type="building" color="255,230,230" fill="1" layer="2.00" shape="-721602.12,-4370162.94"/>
    <poly id="279259547" type="amenity" color="237,199,199" fill="1" layer="2.00" shape="-721602.12,-4370162.94"/>
    <poly id="279259547#1" type="building" color="255,230,230" fill="1" layer="2.00" shape="-721602.12,-4370162.94"/>
    <poly id="279259548" type="amenity" color="237,199,199" fill="1" layer="2.00" shape="-721602.12,-4370162.94"/>
    <poly id="279259549" type="building" color="255,230,230" fill="1" layer="2.00" shape="-721602.12,-4370162.94"/>
    <poly id="279259550" type="landuse" color="194,194,130" fill="1" layer="-4.00" shape="-721602.12,-4370162.94"/>
    <poly id="279259552" type="building" color="255,230,230" fill="1" layer="2.00" shape="-721602.12,-4370162.94"/>
    <poly id="279260034" type="building" color="255,230,230" fill="1" layer="2.00" shape="-721602.13,-4370162.94"/>
    <poly id="279377797" type="building" color="255,230,230" fill="1" layer="2.00" shape="-721602.12,-4370162.94"/>
    <poly id="279377800" type="amenity" color="237,199,199" fill="1" layer="2.00" shape="-721602.12,-4370162.94"/>
    <poly id="279377802" type="amenity" color="237,199,199" fill="1" layer="2.00" shape="-721602.12,-4370162.95"/>
    <poly id="287897254" type="amenity" color="237,199,199" fill="1" layer="2.00" shape="-721602.14,-4370162.94"/>
    <poly id="36962389" type="leisure" color="207,245,201" fill="1" layer="0.00" shape="-721602.12,-4370162.95"/>
    <poly id="36995582" type="natural" color="140,196,107" fill="1" layer="2.00" shape="-721602.12,-4370162.95"/>
    <poly id="4826235" type="parking" color="184,184,179" fill="1" layer="-2.00" shape="-721602.14,-4370162.94"/>
    <poly id="5011425" type="amenity" color="237,199,199" fill="1" layer="2.00" shape="-721602.14,-4370162.94"/>
    <poly id="5011425#1" type="building" color="255,230,230" fill="1" layer="2.00" shape="-721602.14,-4370162.94"/>
    <poly id="6277225" type="leisure" color="207,245,201" fill="1" layer="0.00" shape="-721602.13,-4370162.94"/>
    <poly id="7666185" type="landuse" color="194,194,130" fill="1" layer="-4.00" shape="-721602.14,-4370162.94"/>
    <poly id="7724652" type="tourism" color="207,245,201" fill="1" layer="-10.00" shape="-721602.13,-4370162.94"/>
    <poly id="7970450" type="tourism" color="207,245,201" fill="1" layer="-10.00" shape="-721602.13,-4370162.94"/>
    <poly id="95539041" type="residential" color="235,235,227" fill="1" layer="-11.00" shape="-721602.14,-4370162.93"/>
    <poly id="95539585" type="residential" color="235,235,227" fill="1" layer="-11.00" shape="-721602.14,-4370162.94"/>
    <poly id="95539916" type="residential" color="235,235,227" fill="1" layer="-11.00" shape="-721602.14,-4370162.94"/>
    <poly id="95540481" type="residential" color="235,235,227" fill="1" layer="-11.00" shape="-721602.12,-4370162.95"/>
    <poly id="96063569" type="residential" color="235,235,227" fill="1" layer="-11.00" shape="-721602.12,-4370162.93"/>
    <poly id="96063570" type="residential" color="235,235,227" fill="1" layer="-11.00" shape="-721602.11,-4370162.93"/>
    <poly id="96074486" type="residential" color="235,235,227" fill="1" layer="-11.00" shape="-721602.13,-4370162.96"/>
    <poly id="96076703" type="residential" color="235,235,227" fill="1" layer="-11.00" shape="-721602.10,-4370162.95"/>
    <poi id="108325267" type="parking" color="184,184,179" layer="-2.00" x="-721602.13" y="-4370162.95"/>
    <poi id="108325683" type="parking" color="184,184,179" layer="-2.00" x="-721602.12" y="-4370162.94"/>
    <poi id="108325734" type="amenity" color="237,199,199" layer="2.00" x="-721602.12" y="-4370162.94"/>
    <poi id="108325757" type="amenity" color="237,199,199" layer="2.00" x="-721602.12" y="-4370162.95"/>
    <poi id="1107977494" type="unknown" color="51,128,255" layer="-1.00" x="-721602.13" y="-4370162.95"/>
    <poi id="1133659081" type="amenity" color="237,199,199" layer="2.00" x="-721602.13" y="-4370162.94"/>
    <poi id="1143920652" type="building" color="255,230,230" layer="2.00" x="-721602.12" y="-4370162.95"/>
    <poi id="1143922803" type="building" color="255,230,230" layer="2.00" x="-721602.13" y="-4370162.95"/>
    <poi id="1143924318" type="building" color="255,230,230" layer="2.00" x="-721602.14" y="-4370162.94"/>
    <poi id="1166373233" type="amenity" color="237,199,199" layer="2.00" x="-721602.14" y="-4370162.94"/>
    <poi id="1166373239" type="amenity" color="237,199,199" layer="2.00" x="-721602.13" y="-4370162.94"/>
    <poi id="1166373250" type="amenity" color="237,199,199" layer="2.00" x="-721602.13" y="-4370162.94"/>
    <poi id="1166373253" type="amenity" color="237,199,199" layer="2.00" x="-721602.14" y="-4370162.94"/>
    <poi id="1166373254" type="amenity" color="237,199,199" layer="2.00" x="-721602.14" y="-4370162.94"/>
    <poi id="1166373265" type="amenity" color="237,199,199" layer="2.00" x="-721602.13" y="-4370162.94"/>
    <poi id="1166373267" type="amenity" color="237,199,199" layer="2.00" x="-721602.13" y="-4370162.94"/>
    <poi id="1166373276" type="amenity" color="237,199,199" layer="2.00" x="-721602.14" y="-4370162.94"/>
    <poi id="1166373279" type="amenity" color="237,199,199" layer="2.00" x="-721602.13" y="-4370162.94"/>
    <poi id="1166961698" type="amenity" color="237,199,199" layer="2.00" x="-721602.14" y="-4370162.94"/>
    <poi id="1166961706" type="amenity" color="237,199,199" layer="2.00" x="-721602.13" y="-4370162.95"/>
    <poi id="1166961715" type="amenity" color="237,199,199" layer="2.00" x="-721602.13" y="-4370162.94"/>
    <poi id="1166961718" type="amenity" color="237,199,199" layer="2.00" x="-721602.13" y="-4370162.94"/>
    <poi id="1236696528" type="amenity" color="237,199,199" layer="2.00" x="-721602.13" y="-4370162.95"/>
    <poi id="1310095070" type="amenity" color="237,199,199" layer="2.00" x="-721602.13" y="-4370162.94"/>
    <poi id="1336585209" type="parking" color="184,184,179" layer="-2.00" x="-721602.13" y="-4370162.95"/>
    <poi id="1342102556" type="parking" color="184,184,179" layer="-2.00" x="-721602.13" y="-4370162.94"/>
    <poi id="1342118415" type="parking" color="184,184,179" layer="-2.00" x="-721602.13" y="-4370162.94"/>
    <poi id="1342134044" type="amenity" color="237,199,199" layer="2.00" x="-721602.12" y="-4370162.95"/>
    <poi id="1607002646" type="amenity" color="237,199,199" layer="2.00" x="-721602.14" y="-4370162.94"/>
    <poi id="1607002648" type="amenity" color="237,199,199" layer="2.00" x="-721602.14" y="-4370162.94"/>
    <poi id="1622820321" type="amenity" color="237,199,199" layer="2.00" x="-721602.13" y="-4370162.94"/>
    <poi id="1622820324" type="amenity" color="237,199,199" layer="2.00" x="-721602.13" y="-4370162.94"/>
    <poi id="1622820331" type="amenity" color="237,199,199" layer="2.00" x="-721602.13" y="-4370162.94"/>
    <poi id="1728190012" type="amenity" color="237,199,199" layer="2.00" x="-721602.13" y="-4370162.95"/>
    <poi id="1728190023" type="amenity" color="237,199,199" layer="2.00" x="-721602.12" y="-4370162.95"/>
    <poi id="1728190025" type="amenity" color="237,199,199" layer="2.00" x="-721602.12" y="-4370162.95"/>
    <poi id="1728190174" type="amenity" color="237,199,199" layer="2.00" x="-721602.14" y="-4370162.94"/>
    <poi id="1728190191" type="amenity" color="237,199,199" layer="2.00" x="-721602.12" y="-4370162.94"/>
    <poi id="1728190254" type="amenity" color="237,199,199" layer="2.00" x="-721602.12" y="-4370162.94"/>
    <poi id="1728190268" type="amenity" color="237,199,199" layer="2.00" x="-721602.14" y="-4370162.94"/>
    <poi id="1728190274" type="amenity" color="237,199,199" layer="2.00" x="-721602.13" y="-4370162.94"/>
    <poi id="1761173288" type="building" color="255,230,230" layer="2.00" x="-721602.13" y="-4370162.94"/>
    <poi id="1770414428" type="amenity" color="237,199,199" layer="2.00" x="-721602.12" y="-4370162.94"/>
    <poi id="1771271188" type="parking" color="184,184,179" layer="-2.00" x="-721602.14" y="-4370162.94"/>
    <poi id="1780618715" type="unknown" color="51,128,255" layer="-1.00" x="-721602.13" y="-4370162.94"/>
    <poi id="1780618718" type="unknown" color="51,128,255" layer="-1.00" x="-721602.13" y="-4370162.95"/>
    <poi id="1780618729" type="unknown" color="51,128,255" layer="-1.00" x="-721602.14" y="-4370162.94"/>
    <poi id="1783289782" type="shop" color="237,199,255" layer="2.00" x="-721602.14" y="-4370162.94"/>
    <poi id="1783289783" type="shop" color="237,199,255" layer="2.00" x="-721602.13" y="-4370162.94"/>
    <poi id="1783289793" type="shop" color="237,199,255" layer="2.00" x="-721602.12" y="-4370162.94"/>
    <poi id="1783289893" type="parking" color="184,184,179" layer="-2.00" x="-721602.13" y="-4370162.95"/>
    <poi id="1783467941" type="shop" color="237,199,255" layer="2.00" x="-721602.13" y="-4370162.95"/>
    <poi id="1807950102" type="amenity" color="237,199,199" layer="2.00" x="-721602.12" y="-4370162.94"/>
    <poi id="1932226215" type="amenity" color="237,199,199" layer="2.00" x="-721602.14" y="-4370162.94"/>
    <poi id="1978745451" type="amenity" color="237,199,199" layer="2.00" x="-721602.14" y="-4370162.94"/>
    <poi id="1978745455" type="tourism" color="207,245,201" layer="2.00" x="-721602.14" y="-4370162.94"/>
    <poi id="1978745458" type="tourism" color="207,245,201" layer="2.00" x="-721602.13" y="-4370162.94"/>
    <poi id="1978746388" type="amenity" color="237,199,199" layer="2.00" x="-721602.14" y="-4370162.94"/>
    <poi id="2090406975" type="tourism" color="207,245,201" layer="2.00" x="-721602.14" y="-4370162.94"/>
    <poi id="2097913360" type="amenity" color="237,199,199" layer="2.00" x="-721602.14" y="-4370162.94"/>
    <poi id="2199778231" type="amenity" color="237,199,199" layer="2.00" x="-721602.13" y="-4370162.94"/>
    <poi id="221228529" type="parking" color="184,184,179" layer="-2.00" x="-721602.13" y="-4370162.94"/>
    <poi id="221230692" type="amenity" color="237,199,199" layer="2.00" x="-721602.14" y="-4370162.94"/>
    <poi id="2288358259" type="amenity" color="237,199,199" layer="2.00" x="-721602.13" y="-4370162.95"/>
    <poi id="2288358264" type="amenity" color="237,199,199" layer="2.00" x="-721602.14" y="-4370162.95"/>
    <poi id="2288358265" type="amenity" color="237,199,199" layer="2.00" x="-721602.14" y="-4370162.95"/>
    <poi id="2288358269" type="tourism" color="207,245,201" layer="2.00" x="-721602.14" y="-4370162.95"/>
    <poi id="246089551" type="amenity" color="237,199,199" layer="2.00" x="-721602.13" y="-4370162.94"/>
    <poi id="2475527909" type="shop" color="237,199,255" layer="2.00" x="-721602.14" y="-4370162.94"/>
    <poi id="2475527911" type="amenity" color="237,199,199" layer="2.00" x="-721602.14" y="-4370162.94"/>
    <poi id="2475527912" type="amenity" color="237,199,199" layer="2.00" x="-721602.14" y="-4370162.94"/>
    <poi id="2475527917" type="shop" color="237,199,255" layer="2.00" x="-721602.14" y="-4370162.94"/>
    <poi id="2475527919" type="amenity" color="237,199,199" layer="2.00" x="-721602.14" y="-4370162.94"/>
    <poi id="2475527921" type="shop" color="237,199,255" layer="2.00" x="-721602.14" y="-4370162.94"/>
    <poi id="2475527923" type="shop" color="237,199,255" layer="2.00" x="-721602.14" y="-4370162.94"/>
    <poi id="2475527934" type="amenity" color="237,199,199" layer="2.00" x="-721602.14" y="-4370162.94"/>
    <poi id="2475527936" type="amenity" color="237,199,199" layer="2.00" x="-721602.14" y="-4370162.94"/>
    <poi id="2475527946" type="shop" color="237,199,255" layer="2.00" x="-721602.14" y="-4370162.94"/>
    <poi id="2475527949" type="shop" color="237,199,255" layer="2.00" x="-721602.14" y="-4370162.94"/>
    <poi id="2475527953" type="shop" color="237,199,255" layer="2.00" x="-721602.14" y="-4370162.94"/>
    <poi id="2475527956" type="parking" color="184,184,179" layer="-2.00" x="-721602.14" y="-4370162.94"/>
    <poi id="2475527971" type="shop" color="237,199,255" layer="2.00" x="-721602.14" y="-4370162.94"/>
    <poi id="2475527976" type="amenity" color="237,199,199" layer="2.00" x="-721602.14" y="-4370162.94"/>
    <poi id="2506329490" type="shop" color="237,199,255" layer="2.00" x="-721602.14" y="-4370162.94"/>
    <poi id="2506329494" type="shop" color="237,199,255" layer="2.00" x="-721602.14" y="-4370162.94"/>
    <poi id="2506329499" type="shop" color="237,199,255" layer="2.00" x="-721602.14" y="-4370162.94"/>
    <poi id="2506329503" type="shop" color="237,199,255" layer="2.00" x="-721602.13" y="-4370162.94"/>
    <poi id="2506329508" type="shop" color="237,199,255" layer="2.00" x="-721602.14" y="-4370162.94"/>
    <poi id="2506329512" type="amenity" color="237,199,199" layer="2.00" x="-721602.14" y="-4370162.94"/>
    <poi id="2506329524" type="shop" color="237,199,255" layer="2.00" x="-721602.14" y="-4370162.94"/>
    <poi id="2506329528" type="shop" color="237,199,255" layer="2.00" x="-721602.14" y="-4370162.94"/>
    <poi id="2506329532" type="amenity" color="237,199,199" layer="2.00" x="-721602.14" y="-4370162.94"/>
    <poi id="2506329537" type="shop" color="237,199,255" layer="2.00" x="-721602.14" y="-4370162.94"/>
    <poi id="2506329541" type="shop" color="237,199,255" layer="2.00" x="-721602.14" y="-4370162.94"/>
    <poi id="2506329545" type="shop" color="237,199,255" layer="2.00" x="-721602.14" y="-4370162.94"/>
    <poi id="2506329549" type="shop" color="237,199,255" layer="2.00" x="-721602.14" y="-4370162.94"/>
    <poi id="2506329553" type="amenity" color="237,199,199" layer="2.00" x="-721602.14" y="-4370162.94"/>
    <poi id="2506329558" type="shop" color="237,199,255" layer="2.00" x="-721602.14" y="-4370162.94"/>
    <poi id="2506451016" type="amenity" color="237,199,199" layer="2.00" x="-721602.14" y="-4370162.94"/>
    <poi id="2506451017" type="amenity" color="237,199,199" layer="2.00" x="-721602.14" y="-4370162.94"/>
    <poi id="2506451018" type="amenity" color="237,199,199" layer="2.00" x="-721602.14" y="-4370162.94"/>
    <poi id="2506451020" type="amenity" color="237,199,199" layer="2.00" x="-721602.14" y="-4370162.94"/>
    <poi id="2506451024" type="amenity" color="237,199,199" layer="2.00" x="-721602.14" y="-4370162.94"/>
    <poi id="2506451028" type="shop" color="237,199,255" layer="2.00" x="-721602.14" y="-4370162.94"/>
    <poi id="2506451031" type="shop" color="237,199,255" layer="2.00" x="-721602.14" y="-4370162.94"/>
    <poi id="2506451034" type="amenity" color="237,199,199" layer="2.00" x="-721602.14" y="-4370162.94"/>
    <poi id="2506451044" type="amenity" color="237,199,199" layer="2.00" x="-721602.14" y="-4370162.94"/>
    <poi id="2506451047" type="shop" color="237,199,255" layer="2.00" x="-721602.14" y="-4370162.94"/>
    <poi id="2506451050" type="shop" color="237,199,255" layer="2.00" x="-721602.14" y="-4370162.94"/>
    <poi id="2506451053" type="shop" color="237,199,255" layer="2.00" x="-721602.14" y="-4370162.94"/>
    <poi id="2506451064" type="shop" color="237,199,255" layer="2.00" x="-721602.14" y="-4370162.94"/>
    <poi id="2506451067" type="shop" color="237,199,255" layer="2.00" x="-721602.14" y="-4370162.94"/>
    <poi id="2506451071" type="amenity" color="237,199,199" layer="2.00" x="-721602.14" y="-4370162.94"/>
    <poi id="2506451073" type="shop" color="237,199,255" layer="2.00" x="-721602.14" y="-4370162.94"/>
    <poi id="2506451076" type="shop" color="237,199,255" layer="2.00" x="-721602.14" y="-4370162.94"/>
    <poi id="2506470123" type="amenity" color="237,199,199" layer="2.00" x="-721602.13" y="-4370162.94"/>
    <poi id="2506470148" type="shop" color="237,199,255" layer="2.00" x="-721602.13" y="-4370162.94"/>
    <poi id="2506470153" type="amenity" color="237,199,199" layer="2.00" x="-721602.13" y="-4370162.94"/>
    <poi id="2506470158" type="amenity" color="237,199,199" layer="2.00" x="-721602.13" y="-4370162.94"/>
    <poi id="2506470168" type="amenity" color="237,199,199" layer="2.00" x="-721602.13" y="-4370162.94"/>
    <poi id="2506470179" type="amenity" color="237,199,199" layer="2.00" x="-721602.13" y="-4370162.94"/>
    <poi id="2506470182" type="tourism" color="207,245,201" layer="2.00" x="-721602.13" y="-4370162.94"/>
    <poi id="2508172873" type="shop" color="237,199,255" layer="2.00" x="-721602.13" y="-4370162.94"/>
    <poi id="2508172882" type="shop" color="237,199,255" layer="2.00" x="-721602.14" y="-4370162.94"/>
    <poi id="2508172890" type="shop" color="237,199,255" layer="2.00" x="-721602.14" y="-4370162.94"/>
    <poi id="2508172900" type="amenity" color="237,199,199" layer="2.00" x="-721602.13" y="-4370162.94"/>