<?xml version="1.0" encoding="UTF-8"?>

<!-- generated on Thu Jun 26 10:54:06 2014 by SUMO polyconvert Version 0.20.0
<?xml version="1.0" encoding="UTF-8"?>

<configuration xmlns:xsi="http://www.w3.org/2001/XMLSchema-instance" xsi:noNamespaceSchemaLocation="http://sumo-sim.org/xsd/polyconvertConfiguration.xsd">

    <input>
        <net-file value="valencia.net.xml"/>
        <osm-files value="valencia.osm"/>
    </input>

    <output>
        <output-file value="valencia.poly.xml"/>
    </output>

</configuration>
-->

<additional xmlns:xsi="http://www.w3.org/2001/XMLSchema-instance" xsi:noNamespaceSchemaLocation="http://sumo-sim.org/xsd/additional_file.xsd">
    <poly id="10120283" type="unknown" color="51,128,255" fill="1" layer="-1.00" shape="4735.67,1183.79 4756.68,1147.60 4821.35,1185.56 4800.38,1220.29 4735.67,1183.79"/>
    <poly id="10153012" type="unknown" color="51,128,255" fill="1" layer="-1.00" shape="3997.75,965.62 4006.39,963.55 4004.24,954.66 4025.41,949.58 4026.54,954.23 4035.79,952.01 4034.66,947.33 4055.69,942.28 4057.81,951.05 4066.31,949.01 4014.84,736.47 3950.47,751.92 3959.04,787.25 3955.08,788.20 3956.90,795.70 3960.82,794.76 3969.25,829.58 3965.05,830.58 3981.15,897.06 3991.10,938.14 3997.75,965.62"/>
    <poly id="10249512" type="unknown" color="51,128,255" fill="1" layer="-1.00" shape="5260.78,1566.15 5274.29,1546.46 5300.26,1563.03 5283.58,1589.34 5272.54,1582.03 5276.37,1575.94 5260.78,1566.15"/>
    <poly id="104676021" type="unknown" color="51,128,255" fill="1" layer="-1.00" shape="3816.55,361.17 3793.88,314.96 3782.67,303.14 3563.30,173.90 3555.03,124.43 3548.58,107.68 3533.88,25.52 3525.61,-53.55 3521.97,-88.93 3420.85,85.07 3311.35,275.36 3134.27,571.56 3133.17,573.39 2964.53,861.13 2928.39,921.52 2797.56,1140.15 2947.34,1183.60 3121.85,1234.66 3178.23,1249.64 3240.50,1268.47 3365.67,1295.48 3425.88,1199.32 3473.12,1115.58 3514.29,1050.07 3563.81,967.31 3597.09,902.95 3622.77,861.82 3661.23,793.93 3695.68,721.32 3750.43,617.55 3788.00,563.28 3793.83,554.85 3807.01,546.49 3847.50,536.17 3851.65,500.54 3816.55,361.17"/>
    <poly id="10532175" type="unknown" color="51,128,255" fill="1" layer="-1.00" shape="5267.70,1517.40 5382.68,1590.90 5393.30,1573.26 5448.29,1609.13 5483.50,1557.98 5499.19,1568.76 5516.30,1545.88 5326.83,1426.18 5267.70,1517.40"/>
    <poly id="10532176" type="unknown" color="51,128,255" fill="1" layer="-1.00" shape="5415.73,1284.62 5333.67,1415.01 5489.61,1512.73 5579.71,1378.36 5508.70,1306.58 5489.70,1334.86 5415.73,1284.62"/>
    <poly id="10532177" type="unknown" color="51,128,255" fill="1" layer="-1.00" shape="5309.25,1563.30 5287.31,1596.86 5320.90,1618.37 5341.73,1584.94 5309.25,1563.30"/>
    <poly id="118397987" type="unknown" color="51,128,255" fill="1" layer="-1.00" shape="4404.65,1262.08 4407.16,1204.84 4459.34,1207.13 4478.74,1228.10 4477.11,1265.25 4404.65,1262.08"/>
    <poly id="118397988" type="unknown" color="51,128,255" fill="1" layer="-1.00" shape="4551.06,1438.19 4483.47,1443.16 4480.65,1334.86 4540.95,1333.98 4566.43,1396.80 4551.39,1402.88 4546.94,1414.88 4551.06,1438.19"/>
    <poly id="11993597" type="unknown" color="51,128,255" fill="1" layer="-1.00" shape="5197.15,553.97 5208.23,531.99 5172.10,540.78 5197.15,553.97"/>
    <poly id="11993631" type="unknown" color="51,128,255" fill="1" layer="-1.00" shape="4783.94,637.06 4743.92,647.32 4770.60,660.14 4783.94,637.06"/>
    <poly id="12403444" type="unknown" color="51,128,255" fill="1" layer="-1.00" shape="4496.90,508.00 4509.12,514.73 4494.51,529.04 4496.90,508.00"/>
    <poly id="12767391" type="unknown" color="51,128,255" fill="1" layer="-1.00" shape="5610.59,593.99 5604.55,591.38 5603.38,594.06 5594.63,590.87 5592.69,595.99 5473.61,557.05 5475.05,551.79 5465.27,548.62 5499.93,462.99 5709.10,406.08 5610.59,593.99"/>
    <poly id="135638444" type="unknown" color="51,128,255" fill="1" layer="-1.00" shape="4074.20,1347.73 4071.44,1346.66 4069.37,1344.91 4067.95,1342.59 4067.32,1339.96 4067.55,1337.27 4068.62,1334.78 4070.41,1332.74 4072.75,1331.36 4075.40,1330.78 4078.10,1331.05 4080.58,1332.14 4082.76,1334.15 4084.12,1336.76 4084.51,1339.69 4083.88,1342.57 4082.30,1345.07 4079.97,1346.89 4077.16,1347.82 4074.20,1347.73"/>
    <poly id="135638555" type="unknown" color="51,128,255" fill="1" layer="-1.00" shape="4024.18,1478.04 3994.01,1422.51 3993.96,1418.73 3995.32,1415.77 4028.84,1402.26 4032.36,1403.54 4033.55,1406.33 4033.94,1474.40 4033.02,1478.62 4030.75,1480.76 4026.65,1480.17 4024.18,1478.04"/>
    <poly id="135638556" type="unknown" color="51,128,255" fill="1" layer="-1.00" shape="3988.94,1412.86 4003.93,1406.59 3990.14,1380.19 3975.53,1387.34 3988.94,1412.86"/>
    <poly id="14362485" type="unknown" color="51,128,255" fill="1" layer="-1.00" shape="5329.29,1212.98 5267.11,1342.43 5263.24,1348.23 5256.71,1359.27 5257.71,1363.55 5256.35,1367.47 5191.01,1464.09 5062.60,1384.69 5100.45,1329.45 5163.37,1200.02 5329.29,1212.98"/>
    <poly id="14362511" type="unknown" color="51,128,255" fill="1" layer="-1.00" shape="5176.21,1485.39 5054.01,1668.30 5052.83,1670.06 4917.41,1580.50 5046.14,1403.80 5176.21,1485.39"/>
    <poly id="150277197" type="unknown" color="51,128,255" fill="1" layer="-1.00" shape="5360.70,1596.11 5439.80,1647.20 5417.67,1681.59 5365.06,1699.29 5347.33,1689.79 5332.42,1647.04 5332.07,1643.12 5332.89,1638.76 5360.70,1596.11"/>
    <poly id="150277198" type="unknown" color="51,128,255" fill="1" layer="-1.00" shape="5216.87,1617.66 5231.68,1594.75 5254.07,1609.32 5257.15,1605.29 5295.49,1630.54 5302.75,1650.77 5260.27,1663.12 5226.33,1642.09 5219.19,1625.31 5221.98,1621.34 5216.87,1617.66"/>
    <poly id="160783135" type="unknown" color="51,128,255" fill="1" layer="-1.00" shape="5263.59,972.21 5248.36,964.51 5259.49,942.76 5275.01,950.77 5263.59,972.21"/>
    <poly id="160783138" type="unknown" color="51,128,255" fill="1" layer="-1.00" shape="5335.19,836.96 5319.75,826.92 5331.47,804.90 5347.24,814.08 5335.19,836.96"/>
    <poly id="160783140" type="unknown" color="51,128,255" fill="1" layer="-1.00" shape="5412.10,656.34 5404.22,653.73 5431.04,572.29 5437.40,573.75 5412.10,656.34"/>
    <poly id="160783144" type="unknown" color="51,128,255" fill="1" layer="-1.00" shape="5214.77,1066.33 5198.39,1058.01 5243.74,973.09 5259.85,980.53 5214.77,1066.33"/>
    <poly id="160783146" type="unknown" color="51,128,255" fill="1" layer="-1.00" shape="5443.80,546.58 5471.78,463.59 5466.95,463.45 5444.28,530.48 5440.90,545.70 5443.80,546.58"/>
    <poly id="160783147" type="unknown" color="51,128,255" fill="1" layer="-1.00" shape="5144.88,1163.30 5161.07,1167.84 5190.98,1112.09 5173.44,1103.74 5144.88,1163.30"/>
    <poly id="160783155" type="unknown" color="51,128,255" fill="1" layer="-1.00" shape="5197.58,1095.73 5209.88,1074.03 5194.65,1066.32 5182.61,1089.20 5197.58,1095.73"/>
    <poly id="160783156" type="unknown" color="51,128,255" fill="1" layer="-1.00" shape="5279.05,942.18 5265.05,933.19 5315.36,837.25 5330.89,844.67 5279.05,942.18"/>
    <poly id="160783164" type="unknown" color="51,128,255" fill="1" layer="-1.00" shape="5351.04,803.73 5336.11,796.29 5386.18,698.77 5395.52,678.71 5404.74,682.46 5387.74,735.11 5351.04,803.73"/>
    <poly id="165500962" type="unknown" color="51,128,255" fill="1" layer="-1.00" shape="5594.31,1181.39 5616.47,1173.85 5598.51,1118.63 5574.72,1123.98 5594.31,1181.39"/>
    <poly id="176509562" type="unknown" color="51,128,255" fill="1" layer="-1.00" shape="4102.38,928.48 4097.28,921.91 4094.74,914.01 4094.85,906.75 4097.66,898.94 4102.98,892.55 4108.84,888.90 4116.93,886.92 4125.22,887.83 4132.84,891.51 4138.13,897.49 4141.36,903.61 4142.50,910.96 4141.00,919.13 4136.78,926.28 4133.32,929.59 4125.97,933.50 4117.71,934.66 4109.56,932.96 4102.38,928.48"/>
    <poly id="187017777" type="unknown" color="51,128,255" fill="1" layer="-1.00" shape="3881.26,1551.51 3902.63,1546.90 3891.72,1512.55 3871.38,1519.06 3881.26,1551.51"/>
    <poly id="19869593" type="unknown" color="51,128,255" fill="1" layer="-1.00" shape="4121.37,863.22 4111.88,862.90 4102.64,865.18 4094.28,868.94 4088.54,872.80 4083.27,877.67 4079.20,883.70 4073.64,893.04 4070.75,904.05 4070.22,915.61 4071.93,925.04 4075.62,934.30 4080.50,942.11 4088.87,950.60 4097.36,955.63 4107.75,959.20 4118.73,960.73 4130.29,959.11 4140.55,955.67 4151.01,948.92 4157.11,942.46 4161.94,935.14 4166.07,924.63 4167.77,911.92 4166.52,899.72 4162.32,888.84 4158.85,882.91 4154.14,877.91 4147.54,872.45 4139.84,867.85 4131.05,864.98 4121.37,863.22"/>
    <poly id="19873364" type="unknown" color="51,128,255" fill="1" layer="-1.00" shape="5126.17,1178.17 5115.85,1196.42 5030.03,1147.61 5039.77,1128.20 5126.17,1178.17"/>
    <poly id="19873365" type="unknown" color="51,128,255" fill="1" layer="-1.00" shape="4998.07,1104.79 5027.56,1121.55 5016.84,1140.15 4986.54,1122.82 4998.07,1104.79"/>
    <poly id="19873367" type="unknown" color="51,128,255" fill="1" layer="-1.00" shape="5033.13,1110.21 5007.96,1095.77 5010.93,1088.46 5016.50,1086.16 5023.39,1085.54 5030.20,1087.92 5036.37,1093.32 5037.83,1099.94 5036.27,1106.19 5033.13,1110.21"/>
    <poly id="19873368" type="unknown" color="51,128,255" fill="1" layer="-1.00" shape="4981.26,1133.90 5011.86,1150.41 5008.08,1157.70 5001.90,1161.91 4993.88,1163.04 4985.17,1160.04 4979.58,1153.58 4978.13,1146.68 4979.50,1137.68 4981.26,1133.90"/>
    <poly id="19873370" type="unknown" color="51,128,255" fill="1" layer="-1.00" shape="4914.04,1079.82 4898.13,1071.00 4908.21,1052.77 4923.53,1062.13 4914.04,1079.82"/>
    <poly id="19873371" type="unknown" color="51,128,255" fill="1" layer="-1.00" shape="4933.38,1067.41 4987.71,1098.21 4977.04,1117.42 4923.18,1085.93 4933.38,1067.41"/>
    <poly id="19873373" type="unknown" color="51,128,255" fill="1" layer="-1.00" shape="4827.13,1029.33 4837.66,1011.80 4899.35,1047.26 4888.59,1065.28 4827.13,1029.33"/>
    <poly id="19873374" type="unknown" color="51,128,255" fill="1" layer="-1.00" shape="4800.91,1013.15 4810.83,995.69 4826.89,1006.66 4816.68,1023.59 4800.91,1013.15"/>
    <poly id="19873375" type="unknown" color="51,128,255" fill="1" layer="-1.00" shape="4707.81,959.36 4717.72,942.12 4734.15,951.06 4724.51,969.21 4707.81,959.36"/>
    <poly id="19873376" type="unknown" color="51,128,255" fill="1" layer="-1.00" shape="4790.49,1007.76 4733.16,974.61 4743.70,956.48 4800.69,989.57 4790.49,1007.76"/>
    <poly id="19873377" type="unknown" color="51,128,255" fill="1" layer="-1.00" shape="4636.21,917.38 4620.99,908.78 4631.01,890.95 4645.80,900.74 4636.21,917.38"/>
    <poly id="19873378" type="unknown" color="51,128,255" fill="1" layer="-1.00" shape="4543.78,840.59 4563.85,851.60 4554.16,869.95 4533.87,858.18 4543.78,840.59"/>
    <poly id="19873379" type="unknown" color="51,128,255" fill="1" layer="-1.00" shape="4532.75,834.28 4524.16,851.58 4480.21,825.49 4489.71,809.00 4532.75,834.28"/>
    <poly id="19873380" type="unknown" color="51,128,255" fill="1" layer="-1.00" shape="4611.75,903.06 4562.53,874.43 4572.73,857.20 4621.36,885.81 4611.75,903.06"/>
    <poly id="19873381" type="unknown" color="51,128,255" fill="1" layer="-1.00" shape="4655.97,905.86 4709.68,937.05 4699.77,953.99 4646.35,923.71 4655.97,905.86"/>
    <poly id="19873383" type="unknown" color="51,128,255" fill="1" layer="-1.00" shape="4444.66,804.94 4393.70,774.31 4402.78,757.93 4454.15,788.51 4444.66,804.94"/>
    <poly id="19873384" type="unknown" color="51,128,255" fill="1" layer="-1.00" shape="4453.66,809.91 4462.92,794.15 4477.25,802.13 4468.08,818.64 4453.66,809.91"/>
    <poly id="19873400" type="unknown" color="51,128,255" fill="1" layer="-1.00" shape="4393.94,753.24 4384.72,769.05 4354.04,751.53 4376.13,744.82 4393.94,753.24"/>
    <poly id="20609086" type="unknown" color="51,128,255" fill="1" layer="-1.00" shape="5178.00,1307.37 5191.51,1309.54 5203.32,1316.35 5211.98,1327.05 5216.22,1340.22 5214.92,1355.70 5208.57,1367.92 5198.90,1376.63 5187.65,1381.34 5176.00,1382.27 5164.67,1379.61 5153.92,1372.97 5145.77,1362.78 5141.50,1349.59 5142.38,1335.53 5147.65,1323.87 5155.44,1315.48 5164.68,1310.11 5178.00,1307.37"/>
    <poly id="227915013" type="unknown" color="51,128,255" fill="1" layer="-1.00" shape="4237.35,1542.78 4219.40,1540.65 4220.22,1536.53 4218.21,1533.71 4219.56,1527.09 4220.81,1523.90 4208.13,1521.04 4206.05,1515.18 4203.66,1510.29 4204.71,1505.71 4208.04,1502.60 4210.15,1501.50 4213.41,1498.63 4225.61,1501.96 4226.89,1497.63 4244.14,1500.20 4237.35,1542.78"/>
    <poly id="227916538" type="unknown" color="51,128,255" fill="1" layer="-1.00" shape="4386.92,1545.77 4329.87,1553.99 4343.64,1627.77 4389.49,1615.76 4386.92,1545.77"/>
    <poly id="23167750" type="unknown" color="51,128,255" fill="1" layer="-1.00" shape="5505.42,888.29 5504.30,891.52 5501.78,890.57 5501.21,892.98 5503.36,893.96 5502.27,903.55 5500.75,903.08 5497.12,912.23 5498.81,913.02 5491.95,921.29 5489.13,920.37 5487.40,922.80 5490.34,924.17 5488.27,927.22 5478.68,923.05 5449.96,910.24 5448.65,913.02 5435.54,907.31 5433.74,906.53 5453.31,862.34 5454.78,862.98 5467.44,868.60 5466.68,871.29 5495.43,883.92 5505.42,888.29"/>
    <poly id="23167751" type="unknown" color="51,128,255" fill="1" layer="-1.00" shape="5462.32,875.74 5499.71,891.07 5498.60,902.18 5496.29,901.21 5492.52,909.91 5494.57,911.13 5487.94,919.74 5449.41,903.98 5462.32,875.74"/>
    <poly id="23167752" type="unknown" color="51,128,255" fill="1" layer="-1.00" shape="5467.44,868.60 5475.51,872.17 5496.55,881.49 5495.43,883.92 5466.68,871.29 5467.44,868.60"/>
    <poly id="23167753" type="unknown" color="51,128,255" fill="1" layer="-1.00" shape="5478.68,923.05 5477.31,925.48 5455.93,916.18 5448.65,913.02 5449.96,910.24 5478.68,923.05"/>
    <poly id="23167754" type="unknown" color="51,128,255" fill="1" layer="-1.00" shape="5455.93,916.18 5448.15,935.50 5427.61,926.48 5435.54,907.31 5448.65,913.02 5455.93,916.18"/>
    <poly id="23167755" type="unknown" color="51,128,255" fill="1" layer="-1.00" shape="5460.86,847.94 5481.23,856.44 5475.51,872.17 5467.44,868.60 5454.78,862.98 5460.86,847.94"/>
    <poly id="23167759" type="unknown" color="51,128,255" fill="1" layer="-1.00" shape="5451.91,1148.18 5466.10,1162.48 5470.81,1175.42 5471.13,1186.97 5467.13,1200.14 5462.57,1207.16 5447.72,1218.50 5428.69,1221.78 5411.20,1216.25 5398.30,1203.88 5391.97,1185.43 5394.76,1167.37 5404.76,1153.03 5418.17,1144.97 5434.91,1142.77 5451.91,1148.18"/>
    <poly id="23309512" type="unknown" color="51,128,255" fill="1" layer="-1.00" shape="4631.56,1533.59 4614.80,1491.21 4668.18,1468.83 4685.48,1513.78 4631.56,1533.59"/>
    <poly id="23309513" type="unknown" color="51,128,255" fill="1" layer="-1.00" shape="4753.36,1526.16 4757.52,1523.79 4769.15,1543.61 4764.90,1545.98 4753.36,1526.16"/>
    <poly id="23360930" type="unknown" color="51,128,255" fill="1" layer="-1.00" shape="3910.33,1119.27 3896.52,1072.11 3999.69,1049.29 4010.02,1097.68 3910.33,1119.27"/>
    <poly id="23377878" type="unknown" color="51,128,255" fill="1" layer="-1.00" shape="4239.44,1345.57 4265.94,1347.83 4263.84,1367.35 4259.29,1409.65 4232.59,1406.18 4239.44,1345.57"/>
    <poly id="23377879" type="unknown" color="51,128,255" fill="1" layer="-1.00" shape="4195.01,1544.59 4228.92,1551.62 4235.15,1588.10 4215.33,1597.94 4212.43,1590.46 4202.94,1594.22 4191.52,1566.00 4195.01,1544.59"/>
    <poly id="23377880" type="unknown" color="51,128,255" fill="1" layer="-1.00" shape="4352.66,1543.38 4345.60,1490.06 4408.46,1468.41 4411.92,1533.74 4352.66,1543.38"/>
    <poly id="239784943" type="unknown" color="51,128,255" fill="1" layer="-1.00" shape="3745.75,1110.64 3755.38,1106.56 3769.86,1100.42 3777.66,1113.92 3792.91,1140.31 3795.92,1145.54 3772.89,1157.01 3745.75,1110.64"/>
    <poly id="243228908" type="unknown" color="51,128,255" fill="1" layer="-1.00" shape="4683.08,1460.25 4701.74,1503.52 4707.04,1505.39 4716.41,1500.01 4718.87,1494.84 4693.33,1458.83 4683.08,1460.25"/>
    <poly id="25606670" type="unknown" color="51,128,255" fill="1" layer="-1.00" shape="3783.86,1424.44 3781.88,1480.68 3780.13,1484.36 3776.08,1485.21 3724.69,1465.06 3736.01,1402.91 3781.66,1419.08 3783.72,1421.41 3783.86,1424.44"/>
    <poly id="25606671" type="unknown" color="51,128,255" fill="1" layer="-1.00" shape="3764.68,1491.84 3777.57,1496.29 3780.62,1499.34 3781.76,1503.28 3779.56,1530.58 3778.18,1534.60 3773.43,1536.03 3757.65,1533.53 3754.58,1531.41 3753.59,1527.64 3760.17,1495.31 3762.12,1493.34 3764.68,1491.84"/>
    <poly id="25606677" type="unknown" color="51,128,255" fill="1" layer="-1.00" shape="3754.20,1542.52 3773.63,1545.16 3776.56,1546.77 3777.54,1550.31 3775.54,1575.72 3772.31,1577.96 3748.38,1574.56 3745.59,1571.42 3751.16,1544.51 3754.20,1542.52"/>
    <poly id="264162531" type="unknown" color="51,128,255" fill="1" layer="-1.00" shape="4067.62,1226.53 4066.38,1224.65 4066.34,1222.13 4069.93,1216.31 4076.75,1211.70 4079.49,1212.06 4080.44,1213.98 4080.77,1218.08 4079.31,1223.96 4075.35,1226.87 4071.61,1228.05 4067.62,1226.53"/>
    <poly id="264162532" type="unknown" color="51,128,255" fill="1" layer="-1.00" shape="4118.36,1228.62 4115.36,1227.76 4112.46,1224.98 4112.26,1221.84 4114.35,1218.10 4118.51,1213.69 4121.37,1215.80 4125.17,1219.99 4126.16,1224.77 4126.39,1228.63 4122.99,1229.77 4118.36,1228.62"/>
    <poly id="265047659" type="unknown" color="51,128,255" fill="1" layer="-1.00" shape="4060.13,1368.14 4074.98,1371.86 4066.44,1389.34 4063.06,1388.78 4059.68,1388.20 4060.13,1368.14"/>
    <poly id="269005240" type="unknown" color="51,128,255" fill="1" layer="-1.00" shape="5399.02,1103.55 5416.61,1061.05 5431.50,1067.17 5413.91,1109.67 5399.02,1103.55"/>
    <poly id="269005242" type="unknown" color="51,128,255" fill="1" layer="-1.00" shape="5386.17,1130.00 5395.87,1108.85 5412.22,1116.23 5398.75,1122.54 5386.17,1130.00"/>
    <poly id="269005243" type="unknown" color="51,128,255" fill="1" layer="-1.00" shape="5424.30,1043.98 5443.06,1000.06 5457.88,1006.33 5439.11,1050.26 5424.30,1043.98"/>
    <poly id="269011033" type="unknown" color="51,128,255" fill="1" layer="-1.00" shape="5364.33,919.98 5385.08,929.38 5387.17,924.89 5366.48,915.34 5364.33,919.98"/>
    <poly id="269011034" type="unknown" color="51,128,255" fill="1" layer="-1.00" shape="5414.07,809.87 5416.24,805.22 5438.15,814.43 5435.64,819.83 5414.07,809.87"/>
    <poly id="269011036" type="unknown" color="51,128,255" fill="1" layer="-1.00" shape="5236.59,1218.77 5234.86,1214.72 5233.74,1210.24 5233.54,1206.17 5233.92,1202.33 5239.06,1197.11 5243.08,1192.39 5244.02,1187.04 5245.50,1178.97 5246.14,1175.46 5246.73,1173.31 5247.66,1170.39 5247.25,1166.59 5248.12,1163.54 5249.82,1161.62 5251.87,1161.41 5253.35,1162.25 5264.00,1175.65 5265.36,1178.44 5267.44,1188.32 5266.11,1193.45 5261.57,1202.62 5256.63,1212.09 5253.95,1218.36 5250.81,1222.39 5247.73,1224.40 5245.21,1225.10 5241.48,1224.67 5238.51,1222.55 5236.59,1218.77"/>
    <poly id="269011037" type="unknown" color="51,128,255" fill="1" layer="-1.00" shape="5247.87,1160.86 5265.89,1121.80 5294.04,1134.76 5271.38,1184.77 5267.27,1183.51 5266.24,1179.08 5264.59,1175.34 5252.93,1160.30 5250.02,1159.95 5247.87,1160.86"/>
    <poly id="269011038" type="unknown" color="51,128,255" fill="1" layer="-1.00" shape="5207.86,1246.83 5223.40,1212.99 5232.12,1204.15 5231.99,1208.78 5234.68,1217.58 5237.84,1223.26 5240.35,1225.43 5243.93,1226.37 5246.90,1225.81 5250.18,1224.10 5254.38,1220.53 5236.88,1259.23 5207.86,1246.83"/>
    <poly id="27130667" type="unknown" color="51,128,255" fill="1" layer="-1.00" shape="5389.87,931.59 5385.08,929.38 5387.17,924.89 5366.48,915.34 5364.33,919.98 5358.01,917.06 5411.10,802.84 5416.24,805.22 5414.07,809.87 5435.64,819.83 5438.15,814.43 5443.25,816.79 5389.87,931.59"/>
    <poly id="27130679" type="unknown" color="51,128,255" fill="1" layer="-1.00" shape="5426.29,932.53 5431.61,954.84 5440.43,972.96 5451.99,986.32 5465.53,995.65 5485.18,950.09 5476.35,932.71 5457.89,925.09 5450.65,942.74 5426.29,932.53"/>
    <poly id="27130680" type="unknown" color="51,128,255" fill="1" layer="-1.00" shape="5463.66,843.02 5485.68,831.01 5509.77,825.55 5537.00,826.56 5511.71,886.10 5479.25,871.41 5486.51,852.19 5463.66,843.02"/>
    <poly id="27260854" type="unknown" color="51,128,255" fill="1" layer="-1.00" shape="5099.30,1465.73 5142.54,1507.23 5087.02,1589.03 5085.28,1598.26 5072.59,1594.84 5030.62,1567.33 5099.30,1465.73"/>
    <poly id="273350127" type="unknown" color="51,128,255" fill="1" layer="-1.00" shape="5689.73,797.33 5714.15,788.60 5749.29,891.35 5765.86,939.63 5683.88,968.26 5672.09,961.28 5652.58,905.28 5667.89,900.08 5674.51,918.70 5713.93,903.92 5701.80,874.36 5664.25,887.70 5643.84,828.18 5658.65,822.81 5675.36,866.78 5685.98,862.61 5672.59,825.04 5696.63,817.78 5689.73,797.33"/>
    <poly id="278538739" type="unknown" color="51,128,255" fill="1" layer="-1.00" shape="5629.61,1020.86 5619.42,1007.17 5623.47,1002.77 5638.87,997.19 5647.25,1007.72 5629.61,1020.86"/>
    <poly id="278915464" type="unknown" color="51,128,255" fill="1" layer="-1.00" shape="5490.28,1080.84 5498.67,1084.11 5507.59,1081.09 5513.24,1065.15 5590.49,1038.52 5583.03,1017.03 5504.74,1044.01 5490.61,1080.02 5490.28,1080.84"/>
    <poly id="278995571" type="unknown" color="51,128,255" fill="1" layer="-1.00" shape="5490.61,1080.02 5488.60,1080.10 5485.81,1084.80 5482.45,1093.21 5482.81,1096.50 5484.48,1098.90 5485.90,1099.40 5486.43,1100.97 5487.94,1102.63 5491.10,1103.24 5494.87,1102.77 5502.41,1099.66 5502.89,1099.21 5503.74,1099.36 5505.55,1098.71 5505.89,1097.18 5506.02,1096.42 5510.62,1095.24 5515.80,1094.01 5520.21,1092.03 5520.65,1077.22 5515.47,1077.46 5507.59,1081.09 5498.67,1084.11 5490.28,1080.84 5490.61,1080.02"/>
    <poly id="278995572" type="unknown" color="51,128,255" fill="1" layer="-1.00" shape="5529.63,1088.18 5576.74,1072.42 5572.44,1058.12 5567.91,1058.12 5546.84,1065.17 5530.86,1068.29 5529.63,1088.18"/>
    <poly id="279000423" type="unknown" color="51,128,255" fill="1" layer="-1.00" shape="5576.74,1072.42 5606.07,1062.84 5607.36,1058.15 5602.69,1044.33 5594.55,1050.01 5589.71,1051.80 5572.44,1058.12 5576.74,1072.42"/>
    <poly id="279112526" type="unknown" color="51,128,255" fill="1" layer="-1.00" shape="5414.07,930.10 5409.43,944.18 5412.56,964.12 5411.60,984.14 5409.02,1002.25 5403.32,1025.28 5397.48,1040.33 5385.40,1065.75 5394.96,1069.66 5396.46,1068.26 5402.00,1070.47 5442.73,987.10 5432.67,974.49 5424.02,957.86 5418.51,932.14 5414.07,930.10"/>
    <poly id="279259546" type="unknown" color="51,128,255" fill="1" layer="-1.00" shape="5512.94,1175.86 5524.30,1164.56 5507.82,1148.31 5506.75,1146.68 5507.92,1144.81 5510.06,1142.96 5545.79,1129.83 5539.81,1115.48 5499.92,1128.64 5495.79,1132.99 5493.60,1136.74 5490.90,1141.92 5490.12,1147.96 5492.14,1154.12 5512.94,1175.86"/>
    <poly id="279259547" type="unknown" color="51,128,255" fill="1" layer="-1.00" shape="5560.22,1194.39 5541.45,1185.16 5542.27,1182.10 5539.25,1184.22 5537.87,1186.24 5533.66,1169.28 5542.15,1159.60 5552.98,1164.73 5546.78,1173.50 5565.77,1183.15 5560.22,1194.39"/>
    <poly id="279259548" type="unknown" color="51,128,255" fill="1" layer="-1.00" shape="5597.95,1227.45 5637.12,1265.35 5720.10,1237.33 5713.06,1216.77 5706.59,1216.88 5700.14,1216.39 5694.00,1215.04 5688.77,1213.14 5683.54,1210.78 5677.92,1207.25 5675.36,1204.25 5671.77,1201.51 5659.60,1205.55 5646.41,1224.19 5632.69,1215.73 5597.95,1227.45"/>
    <poly id="279259549" type="unknown" color="51,128,255" fill="1" layer="-1.00" shape="5619.36,1057.18 5613.19,1039.18 5624.97,1035.20 5631.38,1053.22 5619.36,1057.18"/>
    <poly id="279259550" type="unknown" color="51,128,255" fill="1" layer="-1.00" shape="5631.38,1053.22 5670.67,1039.39 5664.27,1021.36 5624.97,1035.20 5631.38,1053.22"/>
    <poly id="279259552" type="unknown" color="51,128,255" fill="1" layer="-1.00" shape="5619.51,1028.25 5615.22,1022.32 5622.87,1016.84 5627.15,1022.76 5619.51,1028.25"/>
    <poly id="279260034" type="unknown" color="51,128,255" fill="1" layer="-1.00" shape="4311.21,1185.87 4315.24,1076.56 4318.70,1073.09 4320.82,1072.94 4442.42,1190.11 4439.96,1195.07 4315.10,1189.75 4311.21,1185.87"/>
    <poly id="279377797" type="unknown" color="51,128,255" fill="1" layer="-1.00" shape="5637.12,1265.35 5614.54,1273.48 5557.51,1219.24 5569.56,1206.80 5603.59,1195.38 5613.94,1200.92 5621.49,1189.12 5633.19,1195.47 5640.76,1182.70 5676.95,1170.76 5683.44,1182.21 5687.57,1187.17 5692.14,1190.60 5698.48,1193.70 5705.62,1195.85 5713.04,1195.48 5719.92,1192.97 5726.42,1190.83 5740.25,1230.42 5720.10,1237.33 5713.06,1216.77 5706.59,1216.88 5700.14,1216.39 5694.00,1215.04 5688.77,1213.14 5683.54,1210.78 5677.92,1207.25 5675.36,1204.25 5671.77,1201.51 5659.60,1205.55 5646.41,1224.19 5632.69,1215.73 5597.95,1227.45 5637.12,1265.35"/>
    <poly id="279377800" type="unknown" color="51,128,255" fill="1" layer="-1.00" shape="5431.72,1056.32 5431.27,1057.23 5430.53,1057.93 5429.59,1058.33 5428.57,1058.40 5427.59,1058.12 5426.77,1057.52 5426.19,1056.68 5425.96,1055.78 5426.01,1054.86 5426.34,1054.00 5426.93,1053.29 5427.71,1052.79 5428.60,1052.55 5429.53,1052.61 5430.39,1052.95 5431.11,1053.53 5431.60,1054.31 5431.84,1055.30 5431.72,1056.32"/>
    <poly id="279377802" type="unknown" color="51,128,255" fill="1" layer="-1.00" shape="5557.91,760.42 5557.56,761.33 5556.93,762.09 5556.10,762.61 5555.15,762.85 5554.17,762.78 5553.25,762.42 5552.50,761.79 5551.97,760.97 5551.73,759.91 5551.86,758.84 5552.35,757.88 5553.14,757.13 5554.13,756.71 5555.22,756.64 5556.26,756.95 5557.13,757.59 5557.73,758.49 5557.98,759.44 5557.91,760.42"/>
    <poly id="287897254" type="unknown" color="51,128,255" fill="1" layer="-1.00" shape="3960.98,902.80 3981.15,897.06 3991.10,938.14 3972.30,943.43 3960.98,902.80"/>
    <poly id="36962389" type="unknown" color="51,128,255" fill="1" layer="-1.00" shape="5556.87,448.86 5570.09,451.31 5582.31,458.27 5591.48,468.90 5596.54,481.98 5596.91,496.00 5592.52,509.32 5584.38,519.95 5573.25,527.43 5560.31,530.96 5546.90,530.17 5534.44,525.13 5524.26,516.38 5517.45,504.84 5514.71,491.73 5516.34,478.43 5522.16,466.37 5531.57,456.80 5543.57,450.75 5556.87,448.86"/>
    <poly id="36995582" type="unknown" color="51,128,255" fill="1" layer="-1.00" shape="5625.93,635.33 5629.40,627.73 5635.09,621.61 5642.41,617.57 5650.64,616.02 5658.94,617.11 5667.01,621.12 5673.26,627.61 5676.94,635.82 5677.63,644.79 5675.25,653.45 5670.07,660.81 5662.70,666.00 5654.01,668.41 5645.00,667.76 5637.31,664.49 5631.02,658.97 5626.79,651.77 5625.04,643.62 5625.93,635.33"/>
    <poly id="4826235" type="unknown" color="51,128,255" fill="1" layer="-1.00" shape="3717.74,1386.87 3704.31,1463.60 3719.75,1468.41 3731.16,1395.00 3787.11,1412.66 3786.96,1394.95 3787.24,1377.44 3758.19,1393.49 3717.74,1386.87"/>
    <poly id="5011425" type="unknown" color="51,128,255" fill="1" layer="-1.00" shape="4032.19,1215.60 4029.40,1215.01 3953.25,1241.51 3985.11,1324.44 4030.82,1304.29 4033.11,1301.26 4033.99,1298.44 4034.38,1264.54 4039.10,1263.95 4039.48,1253.89 4034.91,1253.16 4034.48,1219.56 4032.19,1215.60"/>
    <poly id="6277225" type="unknown" color="51,128,255" fill="1" layer="-1.00" shape="4750.44,1552.91 4745.29,1548.37 4741.88,1542.43 4740.53,1535.72 4741.39,1528.94 4744.38,1522.77 4749.44,1517.69 4755.90,1514.58 4763.04,1513.76 4770.04,1515.37 4776.11,1519.20 4780.56,1524.82 4782.89,1531.58 4782.82,1538.74 4780.38,1545.46 4776.07,1550.79 4770.27,1554.48 4763.60,1556.14 4756.76,1555.60 4750.44,1552.91"/>
    <poly id="7666185" type="unknown" color="51,128,255" fill="1" layer="-1.00" shape="4189.75,1444.86 4168.53,1468.87 4165.40,1470.73 4161.12,1458.47 4162.65,1442.44 4161.65,1437.09 4187.60,1436.81 4189.75,1444.86"/>
    <poly id="7724652" type="unknown" color="51,128,255" fill="1" layer="-1.00" shape="4616.20,1533.37 4614.81,1538.14 4609.05,1541.17 4602.47,1547.62 4599.24,1554.63 4596.82,1564.87 4600.21,1588.32 4575.52,1594.93 4550.12,1468.00 4552.19,1463.94 4583.66,1455.93 4587.32,1458.32 4616.20,1533.37"/>
    <poly id="7970450" type="unknown" color="51,128,255" fill="1" layer="-1.00" shape="4726.77,1583.25 4674.71,1677.61 4664.45,1684.85 4655.33,1685.18 4645.46,1679.16 4642.03,1668.69 4632.70,1584.89 4630.59,1569.89 4638.25,1559.24 4649.51,1555.35 4716.69,1528.57 4718.72,1539.00 4723.82,1556.33 4727.49,1566.99 4728.87,1575.78 4726.77,1583.25"/>
    <poly id="95539041" type="unknown" color="51,128,255" fill="1" layer="-1.00" shape="3477.45,2412.99 3484.21,2387.43 3430.93,2186.24 3419.76,2110.01 3411.89,2030.66 3405.59,1945.83 3403.63,1902.08 3403.94,1899.77 3408.87,1864.51 3423.05,1734.48 3424.62,1720.06 3428.40,1605.62 3429.27,1480.05 3438.05,1432.47 3466.05,1343.10 3478.85,1315.87 3580.68,1213.48 3649.53,1148.77 3657.59,1141.64 3680.13,1128.96 3709.70,1113.25 3770.94,1087.89 3783.53,1083.66 3817.25,1074.97 3942.68,1043.66 3996.26,1027.73 4082.13,1002.08 4115.56,992.10 4188.78,968.02 4219.18,970.74 4316.43,1057.30 4456.58,1193.44 4546.86,1281.64 4605.54,1344.08 4732.87,1507.90 4749.25,1500.56 4770.07,1499.34 4782.42,1503.37 4795.93,1515.27 4802.09,1526.02 4799.61,1547.58 4892.29,1600.43 4827.98,1698.85 4792.79,1749.34 4736.41,1845.22 4673.75,1909.34 4657.83,1954.45 4612.92,2006.89 4588.77,2032.80 4498.29,2106.08 4444.68,2146.75 4339.14,2223.35 4329.40,2227.58 4213.83,2310.54 4205.09,2316.84 4199.00,2321.22 4164.07,2345.74 4167.97,2351.63 4171.12,2356.40 4128.82,2384.56 4120.44,2390.17 4115.06,2392.05 4109.86,2393.89 4099.18,2395.48 4081.00,2398.28 4023.63,2430.92 3984.35,2461.79 3936.85,2493.09 3903.99,2506.18 3810.68,2533.20 3789.02,2542.34 3722.19,2554.08 3711.94,2553.89 3506.86,2453.51 3484.78,2438.19 3471.51,2429.00 3477.45,2412.99"/>